                                  MODFLOW-2005     
      U.S. GEOLOGICAL SURVEY MODULAR FINITE-DIFFERENCE GROUND-WATER FLOW MODEL
                       VERSION 1.6.01 3/4/2009, with FMP2

 LIST FILE: ex1.lst
                         UNIT    7

 OPENING ex1tr.lpf
 FILE TYPE:LPF   UNIT    9   STATUS:OLD    
 FORMAT:FORMATTED              ACCESS:SEQUENTIAL          

 OPENING ex1tr.ba6
 FILE TYPE:BAS6   UNIT   10   STATUS:OLD    
 FORMAT:FORMATTED              ACCESS:SEQUENTIAL          

 OPENING ex1tr.dis
 FILE TYPE:DIS   UNIT   11   STATUS:OLD    
 FORMAT:FORMATTED              ACCESS:SEQUENTIAL          

 OPENING ex1tr2.fmp
 FILE TYPE:FMP   UNIT   12   STATUS:OLD    
 FORMAT:FORMATTED              ACCESS:SEQUENTIAL          

 OPENING ex1tr.sfr
 FILE TYPE:SFR   UNIT   14   STATUS:OLD    
 FORMAT:FORMATTED              ACCESS:SEQUENTIAL          

 OPENING ex1_MN.mnw
 FILE TYPE:MNW1   UNIT   15   STATUS:OLD    
 FORMAT:FORMATTED              ACCESS:SEQUENTIAL          

 OPENING ex1tr.ghb
 FILE TYPE:GHB   UNIT   16   STATUS:OLD    
 FORMAT:FORMATTED              ACCESS:SEQUENTIAL          

 OPENING ex1tr.uzf
 FILE TYPE:UZF   UNIT   17   STATUS:OLD    
 FORMAT:FORMATTED              ACCESS:SEQUENTIAL          

 OPENING ex1.pcg
 FILE TYPE:PCG   UNIT   18   STATUS:OLD    
 FORMAT:FORMATTED              ACCESS:SEQUENTIAL          

 OPENING ex1tr.oc
 FILE TYPE:OC   UNIT   19   STATUS:OLD    
 FORMAT:FORMATTED              ACCESS:SEQUENTIAL          

 OPENING hyd_all.hyd
 FILE TYPE:HYD   UNIT   21   STATUS:OLD    
 FORMAT:FORMATTED              ACCESS:SEQUENTIAL          

 OPENING ex1.hed
 FILE TYPE:DATA   UNIT   22   STATUS:UNKNOWN
 FORMAT:FORMATTED              ACCESS:SEQUENTIAL          

 OPENING OFE.in
 FILE TYPE:DATA   UNIT   20   STATUS:UNKNOWN
 FORMAT:FORMATTED              ACCESS:SEQUENTIAL          

 OPENING ROOT.IN
 FILE TYPE:DATA   UNIT   30   STATUS:UNKNOWN
 FORMAT:FORMATTED              ACCESS:SEQUENTIAL          

 OPENING KC.in
 FILE TYPE:DATA   UNIT   40   STATUS:UNKNOWN
 FORMAT:FORMATTED              ACCESS:SEQUENTIAL          

 OPENING FTE.in
 FILE TYPE:DATA   UNIT   50   STATUS:UNKNOWN
 FORMAT:FORMATTED              ACCESS:SEQUENTIAL          

 OPENING INEFFSW.IN
 FILE TYPE:DATA   UNIT   60   STATUS:UNKNOWN
 FORMAT:FORMATTED              ACCESS:SEQUENTIAL          

 OPENING NRDFAC.IN
 FILE TYPE:DATA   UNIT   80   STATUS:UNKNOWN
 FORMAT:FORMATTED              ACCESS:SEQUENTIAL          

 OPENING CBC.OUT
 FILE TYPE:DATA(BINARY)   UNIT   70   STATUS:UNKNOWN
 FORMAT:BINARY                 ACCESS:SEQUENTIAL          

 OPENING hyd_all.sav
 FILE TYPE:DATA(BINARY)   UNIT   71   STATUS:UNKNOWN
 FORMAT:BINARY                 ACCESS:SEQUENTIAL          

 OPENING f5&8bin.uzfot
 FILE TYPE:DATA(BINARY)   UNIT   61   STATUS:UNKNOWN
 FORMAT:BINARY                 ACCESS:SEQUENTIAL          

 OPENING f5_r2c2.opt1
 FILE TYPE:DATA   UNIT   62   STATUS:UNKNOWN
 FORMAT:FORMATTED              ACCESS:SEQUENTIAL          

 OPENING f5_r3c3.opt2
 FILE TYPE:DATA   UNIT   63   STATUS:UNKNOWN
 FORMAT:FORMATTED              ACCESS:SEQUENTIAL          

 OPENING f5_r4c4.opt3
 FILE TYPE:DATA   UNIT   64   STATUS:UNKNOWN
 FORMAT:FORMATTED              ACCESS:SEQUENTIAL          

 OPENING f5_r5c4.opt2
 FILE TYPE:DATA   UNIT   65   STATUS:UNKNOWN
 FORMAT:FORMATTED              ACCESS:SEQUENTIAL          

 OPENING f8_r10c20.opt2
 FILE TYPE:DATA   UNIT   66   STATUS:UNKNOWN
 FORMAT:FORMATTED              ACCESS:SEQUENTIAL          

 OPENING f5&8.uzfot
 FILE TYPE:DATA   UNIT   67   STATUS:UNKNOWN
 FORMAT:FORMATTED              ACCESS:SEQUENTIAL          

 BAS -- BASIC PACKAGE, VERSION 7, 5/2/2005 INPUT READ FROM UNIT   10

 DISCRETIZATION INPUT DATA READ FROM UNIT   11
 # generic model 1 transient discretization file
    4 LAYERS        23 ROWS        20 COLUMNS
   24 STRESS PERIOD(S) IN SIMULATION
 MODEL TIME UNIT IS DAYS
 MODEL LENGTH UNIT IS METERS
  Confining bed flag for each layer:
   1   1   1   0

                     DELR =   500.000    

                     DELC =   500.000    

 OPENING FILE ON UNIT   99:
 GSE.IN                                                                                                                                                                                                  



           TOP ELEVATION OF LAYER 1
 READING ON UNIT   99 WITH FORMAT: (FREE)              

   MODEL LAYER BOTTOM EL. =   205.000     FOR LAYER   1

 BOT. EL. OF QUASI-3D BED =   200.000     FOR LAYER   1

   MODEL LAYER BOTTOM EL. =   140.000     FOR LAYER   2

 BOT. EL. OF QUASI-3D BED =   125.000     FOR LAYER   2

   MODEL LAYER BOTTOM EL. =   65.0000     FOR LAYER   3

 BOT. EL. OF QUASI-3D BED =   60.0000     FOR LAYER   3

   MODEL LAYER BOTTOM EL. =   0.00000     FOR LAYER   4


 STRESS PERIOD     LENGTH       TIME STEPS     MULTIPLIER FOR DELT    SS FLAG
 ----------------------------------------------------------------------------
        1         30.42000          2                    1.000         TR
        2         30.42000          2                    1.000         TR
        3         30.42000          2                    1.000         TR
        4         30.42000          2                    1.000         TR
        5         30.42000          2                    1.000         TR
        6         30.42000          2                    1.000         TR
        7         30.42000          2                    1.000         TR
        8         30.42000          2                    1.000         TR
        9         30.42000          2                    1.000         TR
       10         30.42000          2                    1.000         TR
       11         30.42000          2                    1.000         TR
       12         30.42000          2                    1.000         TR
       13         30.42000          2                    1.000         TR
       14         30.42000          2                    1.000         TR
       15         30.42000          2                    1.000         TR
       16         30.42000          2                    1.000         TR
       17         30.42000          2                    1.000         TR
       18         30.42000          2                    1.000         TR
       19         30.42000          2                    1.000         TR
       20         30.42000          2                    1.000         TR
       21         30.42000          2                    1.000         TR
       22         30.42000          2                    1.000         TR
       23         30.42000          2                    1.000         TR
       24         30.42000          2                    1.000         TR

 TRANSIENT SIMULATION



 
 # generic model 1                                                               
 THE FREE FORMAT OPTION HAS BEEN SELECTED

           BOUNDARY ARRAY =              1 FOR LAYER   1

           BOUNDARY ARRAY =              1 FOR LAYER   2

           BOUNDARY ARRAY =              1 FOR LAYER   3

           BOUNDARY ARRAY =              1 FOR LAYER   4

 AQUIFER HEAD WILL BE SET TO  -999.00     AT ALL NO-FLOW NODES (IBOUND=0).



                       INITIAL HEAD FOR LAYER   1
 READING ON UNIT   10 WITH FORMAT: (FREE)              



                       INITIAL HEAD FOR LAYER   2
 READING ON UNIT   10 WITH FORMAT: (FREE)              



                       INITIAL HEAD FOR LAYER   3
 READING ON UNIT   10 WITH FORMAT: (FREE)              



                       INITIAL HEAD FOR LAYER   4
 READING ON UNIT   10 WITH FORMAT: (FREE)              

 OUTPUT CONTROL IS SPECIFIED ONLY AT TIME STEPS FOR WHICH OUTPUT IS DESIRED
 HEADS WILL BE SAVED WITH FORMAT: (100F8.2)           
 SAVED HEADS WILL BE LABELED
 COMPACT CELL-BY-CELL BUDGET FILES WILL BE WRITTEN
 HEAD PRINT FORMAT CODE IS  -3    DRAWDOWN PRINT FORMAT CODE IS   0
 HEADS WILL BE SAVED ON UNIT   22    DRAWDOWNS WILL BE SAVED ON UNIT    0

 LPF -- LAYER-PROPERTY FLOW PACKAGE, VERSION 7, 5/2/2005
         INPUT READ FROM UNIT    9
 CELL-BY-CELL FLOWS WILL BE SAVED ON UNIT   70
 HEAD AT CELLS THAT CONVERT TO DRY=   2222.0    
 No named parameters

   LAYER FLAGS:
 LAYER       LAYTYP        LAYAVG         CHANI        LAYVKA        LAYWET
 ---------------------------------------------------------------------------
    1             1             0     1.000E+00             1             0
    2             0             0     1.000E+00             1             0
    3             0             0     1.000E+00             1             0
    4             0             0     1.000E+00             1             0

   INTERPRETATION OF LAYER FLAGS:
                        INTERBLOCK     HORIZONTAL    DATA IN
         LAYER TYPE   TRANSMISSIVITY   ANISOTROPY   ARRAY VKA   WETTABILITY
 LAYER      (LAYTYP)      (LAYAVG)       (CHANI)      (LAYVKA)      (LAYWET)
 ---------------------------------------------------------------------------
    1   CONVERTIBLE      HARMONIC     1.000E+00    ANISOTROPY  NON-WETTABLE
    2      CONFINED      HARMONIC     1.000E+00    ANISOTROPY  NON-WETTABLE
    3      CONFINED      HARMONIC     1.000E+00    ANISOTROPY  NON-WETTABLE
    4      CONFINED      HARMONIC     1.000E+00    ANISOTROPY  NON-WETTABLE

 WETTING CAPABILITY IS NOT ACTIVE IN ANY LAYER

    HYD. COND. ALONG ROWS =   10.0000     FOR LAYER   1

  HORIZ. TO VERTICAL ANI. =   1.00000     FOR LAYER   1

         SPECIFIC STORAGE =  1.000000E-05 FOR LAYER   1

           SPECIFIC YIELD =  2.000000E-02 FOR LAYER   1

 QUASI3D VERT. HYD. COND. =  2.000000E-03 FOR LAYER   1

    HYD. COND. ALONG ROWS =   1.50000     FOR LAYER   2

  HORIZ. TO VERTICAL ANI. =   1.00000     FOR LAYER   2

         SPECIFIC STORAGE =  1.000000E-05 FOR LAYER   2

 QUASI3D VERT. HYD. COND. =  1.000000E-03 FOR LAYER   2

    HYD. COND. ALONG ROWS =   1.00000     FOR LAYER   3

  HORIZ. TO VERTICAL ANI. =   1.00000     FOR LAYER   3

         SPECIFIC STORAGE =  1.000000E-05 FOR LAYER   3

 QUASI3D VERT. HYD. COND. =  5.000000E-04 FOR LAYER   3

    HYD. COND. ALONG ROWS =  0.150000     FOR LAYER   4

  HORIZ. TO VERTICAL ANI. =   1.00000     FOR LAYER   4

         SPECIFIC STORAGE =  1.000000E-05 FOR LAYER   4

 GHB -- GENERAL-HEAD BOUNDARY PACKAGE, VERSION 7, 5/2/2005
         INPUT READ FROM UNIT   16
 No named parameters
 MAXIMUM OF     92 ACTIVE GHB CELLS AT ONE TIME
 CELL-BY-CELL FLOWS WILL BE SAVED ON UNIT   70


     0 GHB parameters

 SFR7 -- STREAMFLOW ROUTING PACKAGE, VERSION 7.1.01, 02/15/2009
         INPUT READ FROM UNIT  14
 # Project 1 New Stream Aquifer Package


 NUMBER OF STREAM REACHES IS  100

 NUMBER OF STREAM SEGMENTS IS   11

 NUMBER OF STREAM PARAMETERS IS    0

 NUMBER OF STREAM SEGMENTS DEFINED USING PARAMETERS IS              0

 MAXIMUM ERROR FOR STREAM LEAKAGE RATES IS  1.00E-04

 CONSTANT FOR MANNINGS EQUATION IS  8.6400E+04

 FLOW TO AND FROM GROUND WATER FOR EACH STREAM REACH WILL BE SAVED ON UNIT 70


   STREAM NETWORK DESCRIPTION: 

   LAYER    ROW    COL   SEGMENT   REACH     LENGTH
                          NUMBER   NUMBER    IN CELL
   --------------------------------------------------
      1     13      1       1        1    5.0000E+02
      1     13      2       1        2    5.0000E+02
      1     13      3       1        3    2.5000E+02
      1     13      3       2        1    2.5000E+02
      1     12      3       2        2    5.0000E+02
      1     11      3       2        3    5.0000E+02
      1     10      3       2        4    5.0000E+02
      1      9      3       2        5    5.0000E+02
      1      8      3       2        6    5.0000E+02
      1      7      3       2        7    5.0000E+02
      1      6      3       2        8    5.0000E+02
      1      5      3       2        9    5.0000E+02
      1      4      3       2       10    5.0000E+02
      1      3      3       2       11    5.0000E+02
      1      3      4       2       12    5.0000E+02
      1      3      5       2       13    5.0000E+02
      1      3      6       2       14    5.0000E+02
      1      3      7       2       15    5.0000E+02
      1      3      8       2       16    5.0000E+02
      1      3      9       2       17    5.0000E+02
      1      3     10       2       18    5.0000E+02
      1      3     11       2       19    5.0000E+02
      1      3     12       2       20    5.0000E+02
      1      4     12       2       21    5.0000E+02
      1      5     12       2       22    5.0000E+02
      1      6     12       2       23    5.0000E+02
      1      7     12       2       24    5.0000E+02
      1      8     12       2       25    5.0000E+02
      1      9     12       2       26    5.0000E+02
      1     10     12       2       27    2.5000E+02
      1     10      7       3        1    2.5000E+02
      1     10      8       3        2    5.0000E+02
      1     10      9       3        3    5.0000E+02
      1     10     10       3        4    5.0000E+02
      1     10     11       3        5    5.0000E+02
      1     10     12       3        6    2.5000E+02
      1     10     12       4        1    2.5000E+02
      1     11     12       4        2    5.0000E+02
      1     12     12       4        3    5.0000E+02
      1     13     12       4        4    2.5000E+02
      1     13      3       5        1    2.5000E+02
      1     13      4       5        2    5.0000E+02
      1     13      5       5        3    2.5000E+02
      1     13      5       6        1    2.5000E+02
      1     14      5       6        2    5.0000E+02
      1     15      5       6        3    5.0000E+02
      1     16      5       6        4    5.0000E+02
      1     17      5       6        5    5.0000E+02
      1     18      5       6        6    5.0000E+02
      1     19      5       6        7    5.0000E+02
      1     20      5       6        8    5.0000E+02
      1     20      6       6        9    5.0000E+02
      1     20      7       6       10    5.0000E+02
      1     20      8       6       11    5.0000E+02
      1     20      9       6       12    5.0000E+02
      1     20     10       6       13    5.0000E+02
      1     20     11       6       14    5.0000E+02
      1     20     12       6       15    5.0000E+02
      1     20     13       6       16    5.0000E+02
      1     20     14       6       17    5.0000E+02
      1     20     15       6       18    5.0000E+02
      1     20     16       6       19    5.0000E+02
      1     20     17       6       20    5.0000E+02
      1     19     17       6       21    5.0000E+02
      1     18     17       6       22    5.0000E+02
      1     17     17       6       23    5.0000E+02
      1     16     17       6       24    2.5000E+02
      1     16      7       7        1    2.5000E+02
      1     16      8       7        2    5.0000E+02
      1     16      9       7        3    5.0000E+02
      1     16     10       7        4    5.0000E+02
      1     16     11       7        5    5.0000E+02
      1     16     12       7        6    5.0000E+02
      1     16     13       7        7    5.0000E+02
      1     16     14       7        8    5.0000E+02
      1     16     15       7        9    5.0000E+02
      1     16     16       7       10    5.0000E+02
      1     16     17       7       11    2.5000E+02
      1     16     17       8        1    2.5000E+02
      1     15     17       8        2    5.0000E+02
      1     14     17       8        3    5.0000E+02
      1     13     17       8        4    2.5000E+02
      1     13      5       9        1    2.5000E+02
      1     13      6       9        2    5.0000E+02
      1     13      7       9        3    5.0000E+02
      1     13      8       9        4    5.0000E+02
      1     13      9       9        5    5.0000E+02
      1     13     10       9        6    5.0000E+02
      1     13     11       9        7    5.0000E+02
      1     13     12       9        8    2.5000E+02
      1     13     12      10        1    2.5000E+02
      1     13     13      10        2    5.0000E+02
      1     13     14      10        3    5.0000E+02
      1     13     15      10        4    5.0000E+02
      1     13     16      10        5    5.0000E+02
      1     13     17      10        6    2.5000E+02
      1     13     17      11        1    2.5000E+02
      1     13     18      11        2    5.0000E+02
      1     13     19      11        3    5.0000E+02
      1     13     20      11        4    5.0000E+02




 UZF1 -- UNSATURATED FLOW PACKAGE, VERSION 1.2, 01/14/2006
         INPUT READ FROM UNIT 17



            AREAL EXTENT OF UZ FLOW
 READING ON UNIT   17 WITH FORMAT: (FREE)              
 OPTION 3 -- RECHARGE IN UZF TO HIGHEST ACTIVE NODE IN EACH VERTICAL COLUMN



            ROUTING OVERLAND RUNOFF
 READING ON UNIT   17 WITH FORMAT: (FREE)              



               SATURATED VERTICAL K
 READING ON UNIT   17 WITH FORMAT: (FREE)              

     BROOKS-COREY EPSILON =   3.50000    

  SATURATED WATER CONTENT =  0.200000    

    INITIAL WATER CONTENT =  0.160000    

UNSATURATED FLOW RESULTS WILL BE PRINTED TO SEPARATE FILES FOR SELECTED MODEL CELLS, AND TIME STEPS AS DEFINED BY OUTPUT CONTROL PACKAGE 

SELECTED MODEL CELLS ARE: 
 ROW NUMBER  COLUMN NUMBER  FORTRAN UNIT NUMBER  OUTPUT OPTION


       2             2                 62                 1
       3             3                 63                 2
       4             4                 64                 1
       5             4                 65                 2
      10            20                 66                 2
       0             0                 67                 4

 PCG -- CONJUGATE-GRADIENT SOLUTION PACKAGE, VERSION 7, 5/2/2005
 MAXIMUM OF    100 CALLS OF SOLUTION ROUTINE
 MAXIMUM OF     10 INTERNAL ITERATIONS PER CALL TO SOLUTION ROUTINE
 MATRIX PRECONDITIONING TYPE :    1



                                    SOLUTION BY THE CONJUGATE-GRADIENT METHOD
                                   -------------------------------------------
                    MAXIMUM NUMBER OF CALLS TO PCG ROUTINE =      100
                        MAXIMUM ITERATIONS PER CALL TO PCG =       10
                               MATRIX PRECONDITIONING TYPE =        1
        RELAXATION FACTOR (ONLY USED WITH PRECOND. TYPE 1) =    0.10000E+01
 PARAMETER OF POLYNOMIAL PRECOND. = 2 (2) OR IS CALCULATED :        2
                         HEAD CHANGE CRITERION FOR CLOSURE =    0.10000E-02
                     RESIDUAL CHANGE CRITERION FOR CLOSURE =    0.10000E+02
            PCG HEAD AND RESIDUAL CHANGE PRINTOUT INTERVAL =        1
     PRINTING FROM SOLVER IS LIMITED(1) OR SUPPRESSED (>1) =        1
                            STEADY-STATE DAMPING PARAMETER =    0.10000E+01
                               TRANSIENT DAMPING PARAMETER =    0.10000E+01

 MNW7 -- MULTI-NODE WELL PACKAGE, VERSION 7, 11/07/2005.
    INPUT READ FROM UNIT  15
 MAXIMUM OF             18 WELLS
 CELL-BY-CELL FLOWS WILL BE RECORDED ON UNIT 70
  The heads at the beginning of SP:   1 will be the default reference elevations.

 Flow rates will not be estimated after the9999th iteration

  A WEL1   data input file will be written to t.wl1 on unit   91                

  A BYNODE data input file will be written to t.ByNode on unit   92             

  A QSUM   data input file will be written to t.Qsum on unit   93               

 HYD -- HYDROGRAPH DATA FOR BAS PACKAGE, VERSION 7, 07/14/2006
         INPUT READ FROM UNIT 21
 HYDROGRAPH VALUES WILL BE SAVED ON UNIT:  71
 HYDROGRAPH VALUES AT DRY CELLS WILL BE:   -999.00    

 ARR INTYP  KLAY     XL            YL         HYDLBL
 ----------------------------------------------------------------
 HD   I      1   3.75000E+03   8.75000E+03  HDI001insideF2_L1   
 HD   I      2   3.75000E+03   8.75000E+03  HDI002insideF2_L2   
 HD   I      1   6.75000E+03   4.25000E+03  HDI001northofF4_L1  
 HD   I      2   6.75000E+03   4.25000E+03  HDI002northofF4_L2  


 FMP2 -- FARM PROCESS, VERSION 2.X, 10/25/2009 17:56:14
 INPUT READ FROM UNIT
 # FMP2 Example Model -- ZERO SCENARIO / EQUAL APPROPRATION
               1 Named Parameters                  15 List entries

 DIMENSIONS:
   MAXIMUM OF     15 FARM WELLS
   TOTAL OF        8 FARMS
   TOTAL OF        3 SOIL-TYPES
   TOTAL OF        6 CROP-TYPES

 WHEN TO READ SETTINGS:
   ROOT ZONE DEPTHS ............................  SPECIFIED FOR EACH STRESS PERIOD
   PRECIPITATION FLUX ..........................  SPECIFIED FOR EACH STRESS PERIOD
   FRACTIONS OF TRANS. & EVAP. OF CONSUMPTIVE USE SPECIFIED FOR EACH STRESS PERIOD
   FRACTIONS OF IN-EFFICIENT LOSSES TO SW-RUNOFF  SPECIFIED FOR EACH STRESS PERIOD
   ON-FARM EFFICIENCIES ........................  SPECIFIED FOR EACH STRESS PERIOD

 WATER POLICY SETTINGS:
   EFFICIENCY BEHAVIOR: CONSERVATIVE BEHAVIOR: CONSTANT EFFICIENCY OVER A TIME STEP
                        EFFICIENCY DOES NOT VARY WITH CHANGING GROUNDWATER LEVEL, BUT
                        DELIVERY MAY VARY WITH CHANGING GROUNDWATER LEVEL
                        EFF. RESET TO SPEC. EFF. AT BEG. OF EACH TIME STEP
   NO DEFICIENCY SCENARIO APPLIED (ZERO SCENARIO)
     ASSUMPTION FOR DEFICIENCY CASE: SUPPLY = DEMAND, I.E.
     SUPPLY SUFFICIENTLY SUPPLEMENTED FROM OUTSIDE MODELING DOMAIN
   NO NON-IRRIGATION-SEASON HAS BEEN SELECTED

 CONSUMPTIVE USE CONCEPT 1: Tgw-act-max < Tc-act-max < Tpot
   (REDUCTION OF ACTUAL TRANSPIRATION ~ RED. OF ROOT ZONE BY ZONES OF WILTING & ANOXIA
    APPROXIMATED BY CROP- & SOIL-TYPE SPECIFIC ANALYTICAL SOLUTION)

 SURFACE-WATER SETTINGS (SUPPLY / RETURNFLOW / RIGHTS:
   FARM DELIVERY REQUIREMENT SUPPLIED BY:
     NON-ROUTED SURFACE-WATER DELIVERIES (FIRST PRIORITY).
     MAXIMUM NUMBER OF NON-ROUTED DELIVERY TYPES =    1
   FARM DELIVERY REQUIREMENT SUPPLIED BY:
     SEMI-ROUTED SURFACE-WATER DELIVERIES (SECOND PRIORITY).
     DIVERSION REACHES FOR SEMI-ROUTED DELIVERIES SPECIFIED FOR THE ENTIRE SIMULATION
   NO ROUTED SURFACE-WATER DELIVERY EXISTS
   FARM RUNOFF RETURNED TO STREAM-NETWORK BY:
     SEMI-ROUTED SURFACE-WATER RETURNFLOW
     (NON-ROUTED TO & ROUTED FROM SPECIFIED REACH THAT IS OUTSIDE THE FARM)
     REACHES RECEIVING SEMI-ROUTED RETURNFLOW ..  SPECIFIED FOR THE ENTIRE SIMULATION
   FARM RUNOFF RETURNED TO STREAM-NETWORK BY:
     FULLY ROUTED SURFACE-WATER RETURNFLOW
     FROM FARMS WITHOUT SPECIFIED SEMI-ROUTED RETURNFLOW LOCATIONS
     TO ALL REACHES OF ANY STREAM SEGMENT LOCATED WITHIN EACH FARM
   EQUAL APPROPRIATION ALLOTMENT HEIGHT SELECTED

 PRINT SETTINGS:
   FARM WELL FLOW RATES:
     A LIST (NODE, RATE) WILL BE SAVED AS BINARY FILE ON UNIT 70
     FOR TIME STEPS, FOR WHICH IN OUTPUT CONTOL
     "SAVE BUDGET" IS SPECIFIED (USING WORDS), OR ICBCFL IS NOT 0 (USING NUMERIC CODES)
   FARM NET RECHARGE FLOW RATES:
     A 2D INTEGER-ARRAY OF EACH CELLS UPPERMOST ACTIVE LAYER, AND
     A 2D REAL-ARRAY OF EACH CELLS NET RECHARGE RATE 
     WILL BE SAVED AS BINARY FILE ON UNIT 70 FOR TIME STEPS, FOR WHICH IN OUTPUT CONTOL
     "SAVE BUDGET" IS SPECIFIED (USING WORDS), OR ICBCFL IS NOT 0 (USING NUMERIC CODES)
   FARM DEMAND & SUPPLY FLOW RATES:
     A LIST OF INITIAL DEMAND & SUPPLY FLOW RATES, AND OF
     FINAL DEMAND AND SUPPLY FLOW RATES AFTER THE APPLICATION OF A DEFICIENCY SCENARIO
     WILL BE SAVED ON ASCII-FILE "FDS.OUT" FOR ALL TIME STEPS.  LIST =
     (PER,TSTP,TIME,FID,OFE,
      TFDR-INI,NR-SWD-INI,R-SWD-INI,QREQ,TFDR-FIN,NR-SWD-FIN,R-SWD-FIN,QREQ,Q,DEF-FLAG)
     (<-- BEFORE DEFICIENCY SCENARIO --> <--       AFTER DEFICIENCY SCENARIO       -->)
   DETAILED FARM BUDGET:
     A LIST OF VOLUMETRIC FLOW RATES FOR ANY TIME STEP [L^3/T], AND OF CUMULATIVE VOLUMES [L^3] 
     WILL BE SAVED ON ASCII-FILE "FB_DETAILS.OUT" FOR ALL TIME STEPS.
      LIST = (PER,TSTP,TIME,FID;
      RATES INTO FARM: Q-p-in, Q-nrd-in, Q-srd-in, Q-rd-in, Q-wells-in, Q-egw-in, Q-tgw-in, Q-ext-in, Q-tot-in,
      RATES OUT OF FARM: Q-ei-out, Q-ep-out, Q-egw-out, Q-ti-out, Q-tp-out, Q-tgw-out Q-run-out, Q-dp-out, Q-nrd-out, Q-srd-out, Q-rd-out, Q-wells-out, Q-tot-out,
      RATE BUDGET ERROR: Q-in-minus-out, Q-Discrepancy [%];
      CUMULATIVE VOLUMES INTO FARM: V-p-in, V-nrd-in, V-srd-in, V-rd-in, V-wells-in, V-egw-in, V-tgw-in, V-ext-in, V-tot-in,
      CUMULATIVE VOLUMES OUT OF FARM: V-ei-out, V-ep-out, V-egw-out, V-ti-out, V-tp-out, V-tgw-out V-run-out, V-dp-out, V-nrd-out, V-srd-out, V-rd-out, V-wells-out, V-tot-out,
      VOLUMETRIC BUDGET ERROR: Q-in-minus-out, Q-Discrepancy [%])
   ROUTING INFOMATION:
     WRITTEN TO ASCII FILE "ROUT.OUT" FOR FIRST STRESS PERIOD ONLY
 
 AUXILIARY FARM WELL PARAMETER: QMAXRESET       


     1 Farm Well parameters

 PARAMETER NAME:WELLS1       TYPE:QMAX
 Parameter value from package file is:    1000.0    
   NUMBER OF ENTRIES:     15

 OPENING FILE ON UNIT   99:
 WELLS.IN                                                                                                                                                                                                                                                                                                                                                                                                                                                                                                            

 WELL NO. LAYER    ROW    COL  F-WELL ID    FARM ID      QMAXfac         QMAXRESET       
 ----------------------------------------------------------------------------------------
       1      1      5      6          1          1      5.0000E+00      0.0000E+00
       2      1      8      6          2          1      5.0000E+00      0.0000E+00
       3      1      8      9          3          1      5.0000E+00      0.0000E+00
       4      1      5      9          4          2      3.0000E+00      0.0000E+00
       5      1      6     10          5          2      2.0000E+00      0.0000E+00
       6      1      7     11          6          2      1.0000E+00      0.0000E+00
       7      1     18      3          7          3      2.0000E+00      0.0000E+00
       8      1     21      3          8          3      4.0000E+00      0.0000E+00
       9      1     18     19          9          4      3.0000E+00      0.0000E+00
      10      1     21     19         10          4      5.0000E+00      0.0000E+00
      11      0      6      2        -11          5      5.0000E+00      1.0000E+00
      12      0      8      2        -12          5      5.0000E+00      1.0000E+00
      13      0     10      2        -13          5      5.0000E+00      1.0000E+00
      14      0      3     19        -14          6      1.0000E+01      1.0000E+00
      15      0      6     17        -15          6      6.0000E+00      1.0000E+00

 OPENING FILE ON UNIT   99:
 GSE.IN                                                                                                                                                                                                  



                     GROUND SURFACE
 READING ON UNIT   99 WITH FORMAT: (FREE)              

 OPENING FILE ON UNIT   99:
 FID.IN                                                                                                                                                                                                  



                FARM IDENTIFICATION
 READING ON UNIT   99 WITH FORMAT: (FREE)              

 OPENING FILE ON UNIT   99:
 SID.IN                                                                                                                                                                                                  



           SOIL TYPE IDENTIFICATION
 READING ON UNIT   99 WITH FORMAT: (FREE)              

 OPENING FILE ON UNIT  99:
 SOILLIST.IN                                                                                                                                                                                                                                                                                                                                                                                                                                                                                                         

 OPENING FILE ON UNIT   99:
 CID.IN                                                                                                                                                                                                  



                CROP IDENTIFICATION
 READING ON UNIT   99 WITH FORMAT: (FREE)              

 OPENING FILE ON UNIT  99:
 PSI.IN                                                                                                                                                                                                                                                                                                                                                                                                                                                                                                              

 OPENING FILE ON UNIT  99:
 SRD.IN                                                                                                                                                                                                                                                                                                                                                                                                                                                                                                              

 SEMI-ROUTED DELIVERIES TO FARMS (LOCATION OF DIVERSION-POINT):
 FARM-ID    ROW    COLUMN   SEGMENT     REACH
       1      3         5         2        13
       2      3         8         2        16
       3     17         5         6         5
       4     20        12         6        15
       5      0         0         0         0
       6     13        15        10         4
       7      0         0         0         0
       8      0         0         0         0

 OPENING FILE ON UNIT  99:
 SRR.IN                                                                                                                                                                                                                                                                                                                                                                                                                                                                                                              

 SEMI-ROUTED RUNOFF-RETURNFLOW FROM FARMS (LOCATION WHERE RUNOFF ENTERS A STREAM REACH):
 FARM-ID    ROW    COLUMN   SEGMENT     REACH
       1      0         0         3         2
       2      0         0         0         0
       3      0         0         0         0
       4      0         0         0         0
       5      0         0         0         0
       6      0         0         0         0
       7      0         0         0         0
       8      0         0         0         0
1
                            STRESS PERIOD NO.    1, LENGTH =   30.42000    
                            -----------------------------------------------

                              NUMBER OF TIME STEPS =     2

                               MULTIPLIER FOR DELT =     1.000

                            INITIAL TIME STEP SIZE =   15.21000    

 BOUND. NO. LAYER   ROW   COL     STAGE      CONDUCTANCE         
 ----------------------------------------------------------------
      1      1      1      1       296.2           39.00    
      2      1      2      1       296.2           39.00    
      3      1      3      1       296.2           39.00    
      4      1      4      1       296.2           39.00    
      5      1      5      1       296.2           39.00    
      6      1      6      1       296.2           39.00    
      7      1      7      1       296.2           39.00    
      8      1      8      1       296.2           39.00    
      9      1      9      1       296.2           39.00    
     10      1     10      1       296.2           39.00    
     11      1     11      1       296.2           39.00    
     12      1     12      1       296.2           39.00    
     13      1     13      1       296.2           39.00    
     14      1     14      1       296.2           39.00    
     15      1     15      1       296.2           39.00    
     16      1     16      1       296.2           39.00    
     17      1     17      1       296.2           39.00    
     18      1     18      1       296.2           39.00    
     19      1     19      1       296.2           39.00    
     20      1     20      1       296.2           39.00    
     21      1     21      1       296.2           39.00    
     22      1     22      1       296.2           39.00    
     23      1     23      1       296.2           39.00    
     24      1      1     20       254.0           32.42    
     25      1      2     20       254.0           32.42    
     26      1      3     20       254.0           32.42    
     27      1      4     20       254.0           32.42    
     28      1      5     20       254.0           32.42    
     29      1      6     20       254.0           32.42    
     30      1      7     20       254.0           32.42    
     31      1      8     20       254.0           32.42    
     32      1      9     20       254.0           32.42    
     33      1     10     20       254.0           32.42    
     34      1     11     20       254.0           32.42    
     35      1     12     20       254.0           32.42    
     36      1     13     20       254.0           32.42    
     37      1     14     20       254.0           32.42    
     38      1     15     20       254.0           32.42    
     39      1     16     20       254.0           32.42    
     40      1     17     20       254.0           32.42    
     41      1     18     20       254.0           32.42    
     42      1     19     20       254.0           32.42    
     43      1     20     20       254.0           32.42    
     44      1     21     20       254.0           32.42    
     45      1     22     20       254.0           32.42    
     46      1     23     20       254.0           32.42    
     47      2      1      1       284.2           4.500    
     48      2      2      1       284.2           4.500    
     49      2      3      1       284.2           4.500    
     50      2      4      1       284.2           4.500    
     51      2      5      1       284.2           4.500    
     52      2      6      1       284.2           4.500    
     53      2      7      1       284.2           4.500    
     54      2      8      1       284.2           4.500    
     55      2      9      1       284.2           4.500    
     56      2     10      1       284.2           4.500    
     57      2     11      1       284.2           4.500    
     58      2     12      1       284.2           4.500    
     59      2     13      1       284.2           4.500    
     60      2     14      1       284.2           4.500    
     61      2     15      1       284.2           4.500    
     62      2     16      1       284.2           4.500    
     63      2     17      1       284.2           4.500    
     64      2     18      1       284.2           4.500    
     65      2     19      1       284.2           4.500    
     66      2     20      1       284.2           4.500    
     67      2     21      1       284.2           4.500    
     68      2     22      1       284.2           4.500    
     69      2     23      1       284.2           4.500    
     70      2      1     20       283.7           4.500    
     71      2      2     20       283.7           4.500    
     72      2      3     20       283.7           4.500    
     73      2      4     20       283.7           4.500    
     74      2      5     20       283.7           4.500    
     75      2      6     20       283.7           4.500    
     76      2      7     20       283.7           4.500    
     77      2      8     20       283.7           4.500    
     78      2      9     20       283.7           4.500    
     79      2     10     20       283.7           4.500    
     80      2     11     20       283.7           4.500    
     81      2     12     20       283.7           4.500    
     82      2     13     20       283.7           4.500    
     83      2     14     20       283.7           4.500    
     84      2     15     20       283.7           4.500    
     85      2     16     20       283.7           4.500    
     86      2     17     20       283.7           4.500    
     87      2     18     20       283.7           4.500    
     88      2     19     20       283.7           4.500    
     89      2     20     20       283.7           4.500    
     90      2     21     20       283.7           4.500    
     91      2     22     20       283.7           4.500    
     92      2     23     20       283.7           4.500    

     92 GHB CELLS



 CLASSIFICATION & COUNT OF STREAM SEGMENTS BASED ON SOURCE OF INFLOW:

                HEADWATER     DIVERSION     RECEIVES TRIBUTARY FLOW
                ---------     ---------     -----------------------
                     3              2               6




 SLOPE FOR SEGMENT AND REACH      2     1 IS WITH  0.000E+00 LESS THAN 1.0E-07: SETTING SLOPE TO 1.0E-06 
 SLOPE FOR SEGMENT AND REACH      2     2 IS WITH  0.000E+00 LESS THAN 1.0E-07: SETTING SLOPE TO 1.0E-06 
 SLOPE FOR SEGMENT AND REACH      2     3 IS WITH  0.000E+00 LESS THAN 1.0E-07: SETTING SLOPE TO 1.0E-06 
 SLOPE FOR SEGMENT AND REACH      2     4 IS WITH  0.000E+00 LESS THAN 1.0E-07: SETTING SLOPE TO 1.0E-06 
 SLOPE FOR SEGMENT AND REACH      2     5 IS WITH  0.000E+00 LESS THAN 1.0E-07: SETTING SLOPE TO 1.0E-06 
 SLOPE FOR SEGMENT AND REACH      2     6 IS WITH  0.000E+00 LESS THAN 1.0E-07: SETTING SLOPE TO 1.0E-06 
 SLOPE FOR SEGMENT AND REACH      2     7 IS WITH  0.000E+00 LESS THAN 1.0E-07: SETTING SLOPE TO 1.0E-06 
 SLOPE FOR SEGMENT AND REACH      2     8 IS WITH  0.000E+00 LESS THAN 1.0E-07: SETTING SLOPE TO 1.0E-06 
 SLOPE FOR SEGMENT AND REACH      2     9 IS WITH  0.000E+00 LESS THAN 1.0E-07: SETTING SLOPE TO 1.0E-06 
 SLOPE FOR SEGMENT AND REACH      2    10 IS WITH  0.000E+00 LESS THAN 1.0E-07: SETTING SLOPE TO 1.0E-06 
 SLOPE FOR SEGMENT AND REACH      6     1 IS WITH  0.000E+00 LESS THAN 1.0E-07: SETTING SLOPE TO 1.0E-06 
 SLOPE FOR SEGMENT AND REACH      6     2 IS WITH  0.000E+00 LESS THAN 1.0E-07: SETTING SLOPE TO 1.0E-06 
 SLOPE FOR SEGMENT AND REACH      6     3 IS WITH  0.000E+00 LESS THAN 1.0E-07: SETTING SLOPE TO 1.0E-06 
 SLOPE FOR SEGMENT AND REACH      6     4 IS WITH  0.000E+00 LESS THAN 1.0E-07: SETTING SLOPE TO 1.0E-06 
 SLOPE FOR SEGMENT AND REACH      6     5 IS WITH  0.000E+00 LESS THAN 1.0E-07: SETTING SLOPE TO 1.0E-06 
 SLOPE FOR SEGMENT AND REACH      6     6 IS WITH  0.000E+00 LESS THAN 1.0E-07: SETTING SLOPE TO 1.0E-06 
 SLOPE FOR SEGMENT AND REACH      6     7 IS WITH  0.000E+00 LESS THAN 1.0E-07: SETTING SLOPE TO 1.0E-06 



 A total of  20 hydrographs have been added for SFR arrays.



            AREAL INFILTRATION RATE
 READING ON UNIT   17 WITH FORMAT: (FREE)              

            1           2           3           4           5           6           7           8           9          10
           11          12          13          14          15          16          17          18          19          20
 ........................................................................................................................
   1    0.000       0.000       0.000       0.000       0.000       0.000       0.000       0.000       0.000       0.000    
        0.000       0.000       0.000       0.000       0.000       0.000       0.000       0.000       0.000       0.000    
   2    0.000      1.0000E-05  1.0000E-05  1.0000E-05   0.000       0.000       0.000       0.000       0.000       0.000    
        0.000       0.000       0.000       0.000       0.000       0.000       0.000       0.000       0.000       0.000    
   3    0.000      1.0000E-05  1.0000E-05  1.0000E-05   0.000       0.000       0.000       0.000       0.000       0.000    
        0.000       0.000       0.000       0.000       0.000       0.000       0.000       0.000       0.000       0.000    
   4    0.000      1.0000E-05  1.0000E-05  1.0000E-05   0.000       0.000       0.000       0.000       0.000       0.000    
        0.000       0.000       0.000       0.000       0.000       0.000       0.000       0.000       0.000       0.000    
   5    0.000      1.0000E-05  1.0000E-05  1.0000E-05   0.000       0.000       0.000       0.000       0.000       0.000    
        0.000       0.000       0.000       0.000       0.000       0.000       0.000       0.000       0.000       0.000    
   6    0.000       0.000       0.000       0.000       0.000       0.000       0.000       0.000       0.000       0.000    
        0.000       0.000       0.000       0.000       0.000       0.000       0.000       0.000       0.000       0.000    
   7    0.000       0.000       0.000       0.000       0.000       0.000       0.000       0.000       0.000       0.000    
        0.000       0.000       0.000       0.000       0.000       0.000       0.000       0.000       0.000       0.000    
   8    0.000       0.000       0.000       0.000       0.000       0.000       0.000       0.000       0.000       0.000    
        0.000       0.000       0.000       0.000       0.000       0.000       0.000       0.000      1.0000E-05  1.0000E-05
   9    0.000       0.000       0.000       0.000       0.000       0.000       0.000       0.000       0.000       0.000    
        0.000       0.000       0.000       0.000       0.000       0.000       0.000       0.000      1.0000E-05  1.0000E-05
  10    0.000       0.000       0.000       0.000       0.000       0.000       0.000       0.000       0.000       0.000    
        0.000       0.000       0.000       0.000       0.000       0.000       0.000       0.000      1.0000E-05  1.0000E-05
  11    0.000       0.000       0.000       0.000       0.000       0.000       0.000       0.000       0.000       0.000    
        0.000       0.000       0.000       0.000       0.000       0.000       0.000       0.000      1.0000E-05  1.0000E-05
  12    0.000       0.000       0.000       0.000       0.000       0.000       0.000       0.000       0.000       0.000    
        0.000       0.000       0.000       0.000       0.000       0.000       0.000       0.000      1.0000E-05  1.0000E-05
  13    0.000       0.000       0.000       0.000       0.000       0.000       0.000       0.000       0.000       0.000    
        0.000       0.000       0.000       0.000       0.000      1.0000E-05  1.0000E-05  1.0000E-05  1.0000E-05  1.0000E-05
  14    0.000       0.000       0.000       0.000       0.000       0.000       0.000       0.000       0.000       0.000    
        0.000       0.000       0.000       0.000       0.000       0.000       0.000       0.000      1.0000E-05  1.0000E-05
  15    0.000       0.000       0.000       0.000       0.000       0.000       0.000       0.000       0.000       0.000    
        0.000       0.000       0.000       0.000       0.000       0.000       0.000       0.000      1.0000E-05  1.0000E-05
  16    0.000       0.000       0.000       0.000       0.000       0.000       0.000       0.000       0.000       0.000    
        0.000       0.000       0.000       0.000       0.000       0.000       0.000       0.000      1.0000E-05  1.0000E-05
  17    0.000       0.000       0.000       0.000       0.000       0.000       0.000       0.000       0.000       0.000    
        0.000       0.000       0.000       0.000       0.000       0.000       0.000       0.000      1.0000E-05  1.0000E-05
  18    0.000       0.000       0.000       0.000       0.000       0.000       0.000       0.000       0.000       0.000    
        0.000       0.000       0.000       0.000       0.000       0.000       0.000       0.000      1.0000E-05  1.0000E-05
  19    0.000       0.000       0.000       0.000       0.000       0.000       0.000       0.000       0.000       0.000    
        0.000       0.000       0.000       0.000       0.000       0.000       0.000       0.000       0.000       0.000    
  20    0.000       0.000       0.000       0.000       0.000       0.000       0.000       0.000       0.000       0.000    
        0.000       0.000       0.000       0.000       0.000       0.000       0.000       0.000       0.000       0.000    
  21    0.000       0.000       0.000       0.000       0.000       0.000       0.000       0.000       0.000       0.000    
        0.000       0.000       0.000       0.000       0.000       0.000       0.000       0.000       0.000       0.000    
  22    0.000       0.000       0.000       0.000       0.000       0.000       0.000       0.000       0.000       0.000    
        0.000       0.000       0.000       0.000       0.000       0.000       0.000       0.000       0.000       0.000    
  23    0.000       0.000       0.000       0.000       0.000       0.000       0.000       0.000       0.000       0.000    
        0.000       0.000       0.000       0.000       0.000       0.000       0.000       0.000       0.000       0.000    

             18 MNW WELLS
    No.   Lay   Row   Col    Stress   QW param      Rw       Skin    WL Limit    WL Refer   NonLinear Cp  QW Group  Cell-To-Well  Min-Qoff  Min-Qon  Site Identifier
      1     1     6     2  0.000     -1.000     0.1000      1.000      205.0      291.8      0.00000             1  690.162         0.000     0.000  NO-PRINT                        
      2     2     6     2  0.000     -1.000     0.1000      1.000      205.0      291.8      0.00000             2  71.6019         0.000     0.000  NO-PRINT                        
      3     3     6     2  0.000     -1.000     0.1000      1.000      205.0      291.8      0.00000             3  47.7346         0.000     0.000  NO-PRINT                        
      4     4     6     2  0.000     -1.000     0.1000      1.000      205.0      291.8      0.00000             4  7.16019         0.000     0.000  NO-PRINT                        
      5     1     8     2  0.000     -1.000     0.1000      1.000      205.0      292.0      0.00000             5  691.833         0.000     0.000  NO-PRINT                        
      6     2     8     2  0.000     -1.000     0.1000      1.000      205.0      292.0      0.00000             6  71.6019         0.000     0.000  NO-PRINT                        
      7     3     8     2  0.000     -1.000     0.1000      1.000      205.0      292.0      0.00000             7  47.7346         0.000     0.000  NO-PRINT                        
      8     4     8     2  0.000     -1.000     0.1000      1.000      205.0      292.0      0.00000             8  7.16019         0.000     0.000  NO-PRINT                        
      9     1    10     2  0.000     -1.000     0.1000      1.000      205.0      292.3      0.00000             9  694.618         0.000     0.000  NO-PRINT                        
     10     2    10     2  0.000     -1.000     0.1000      1.000      205.0      292.3      0.00000            10  71.6019         0.000     0.000  NO-PRINT                        
     11     3    10     2  0.000     -1.000     0.1000      1.000      205.0      292.3      0.00000            11  47.7346         0.000     0.000  NO-PRINT                        
     12     4    10     2  0.000     -1.000     0.1000      1.000      205.0      292.3      0.00000            12  7.16019         0.000     0.000  NO-PRINT                        
     13     2     3    19  0.000     -1.000     0.1000      1.000      205.0      280.3      0.00000            13  71.6019         0.000     0.000  NO-PRINT                        
     14     3     3    19  0.000     -1.000     0.1000      1.000      205.0      280.3      0.00000            14  47.7346         0.000     0.000  NO-PRINT                        
     15     4     3    19  0.000     -1.000     0.1000      1.000      205.0      280.3      0.00000            15  7.16019         0.000     0.000  NO-PRINT                        
     16     2     6    17  0.000     -1.000     0.1000      1.000      205.0      281.8      0.00000            16  71.6019         0.000     0.000  NO-PRINT                        
     17     3     6    17  0.000     -1.000     0.1000      1.000      205.0      281.8      0.00000            17  47.7346         0.000     0.000  NO-PRINT                        
     18     4     6    17  0.000     -1.000     0.1000      1.000      205.0      281.8      0.00000            18  7.16019         0.000     0.000  NO-PRINT                        

 Parameter:  WELLS1
 WELL NO. LAYER    ROW    COL  F-WELL ID    FARM ID         QMAX         QMAXRESET       
 ----------------------------------------------------------------------------------------
       1      1      5      6          1          1      5.0000E+03      0.0000E+00
       2      1      8      6          2          1      5.0000E+03      0.0000E+00
       3      1      8      9          3          1      5.0000E+03      0.0000E+00
       4      1      5      9          4          2      3.0000E+03      0.0000E+00
       5      1      6     10          5          2      2.0000E+03      0.0000E+00
       6      1      7     11          6          2      1.0000E+03      0.0000E+00
       7      1     18      3          7          3      2.0000E+03      0.0000E+00
       8      1     21      3          8          3      4.0000E+03      0.0000E+00
       9      1     18     19          9          4      3.0000E+03      0.0000E+00
      10      1     21     19         10          4      5.0000E+03      0.0000E+00
      11      0      6      2        -11          5      5.0000E+03      1.0000E+00
      12      0      8      2        -12          5      5.0000E+03      1.0000E+00
      13      0     10      2        -13          5      5.0000E+03      1.0000E+00
      14      0      3     19        -14          6      1.0000E+04      1.0000E+00
      15      0      6     17        -15          6      6.0000E+03      1.0000E+00

 NUMBER OF ACTIVE FARM WELLS:       15

 FARM-ID  NUMBER OF WELLS PER FARM  TOTAL MAX.CAPACITY PER FARM
       1                         3                   15000.0000
       2                         3                    6000.0000
       3                         2                    6000.0000
       4                         2                    8000.0000
       5                         3                   15000.0000
       6                         2                   16000.0000
       7                         0                       0.0000
       8                         0                       0.0000
 Reading list on unit  20
 LIST SCALING FACTOR= 0.60000    
 (THE SCALE FACTOR WAS APPLIED TO FIELDS 2 - 7)
 Reading list on unit  30
 Reading list on unit  40

  REF. EVAPOTRANSPIRATION =  9.100000E-04
 Reading list on unit  50

Transpiratory and Evaporative Fractions of Crop Consumptive Use
    % Transpiration % Evap. for Precip. % Evap. for Irrig.
    1          0.000          1.000          0.500
    2          0.822          0.178          0.158
    3          0.957          0.043          0.043
    4          0.125          0.875          0.875
    5          0.777          0.223          0.000
    6          0.200          0.800          0.000
 Reading list on unit  60

FRACTIONS OF IN-EFFICIENT LOSSES TO SW-RUNOFF FROM 
     PRECIPITATION:  IRRIGATION:
    1          0.500          0.600
    2          0.400          0.300
    3          0.600          0.500
    4          0.700          0.600
    5          0.840          0.000
    6          0.740          0.000

       PRECIPITATION FLUX =  2.070000E-03

 OPENING FILE ON UNIT  99:
 NRDV.IN                                                                                                                                                                                                                                                                                                                                                                                                                                                                                                             
 READING SCALE FACTOR LIST ON UNIT  80
 FIELD     SCALE FACTOR
     1       1.0000    
     2       1.0000    
     3       1.0000    
     4       1.0000    

UNRANKED LIST OF NON-ROUTED DELIVERIES TO FARMS [L3]:
TYPE:             1

FARM-ID  VOLUME:
      1   1.500E+04
      2   1.500E+04
      3   2.000E+04
      4   1.000E+04
      5   1.000E+04
      6   2.000E+04
      7   0.000E+00
      8   0.000E+00

FARM-ID  PRIORITY RANK OF NRD-TYPE:
      1           1
      2           1
      3           1
      4           1
      5           1
      6           1
      7           1
      8           1

FARM-ID  USE-FLAG:
         0 = SUFFICIENT USE
         1 = ABSOLUTE USE (RECHARGE SURPLUS BACK INTO CANAL)
         2 = ABSOLUTE USE (INJECT SURPLUS INTO FARM-WELLS)
      1           0
      2           0
      3           0
      4           0
      5           0
      6           0
      7           0
      8           0

LIST OF NON-ROUTED DELIVERIES IN RANKED SEQUENCE [L3/T]:

FARM-ID  RATE:
      1   4.931E+02
      2   4.931E+02
      3   6.575E+02
      4   3.287E+02
      5   3.287E+02
      6   6.575E+02
      7   0.000E+00
      8   0.000E+00

FARM-ID  USE-FLAG:
         0 = SUFFICIENT USE
         1 = ABSOLUTE USE (RECHARGE SURPLUS BACK INTO CANAL)
         2 = ABSOLUTE USE (INJECT SURPLUS INTO FARM-WELLS)
      1           0
      2           0
      3           0
      4           0
      5           0
      6           0
      7           0
      8           0

FARM ALLOTMENT HEIGHT [L]:   0.000
 
 SOLVING FOR HEAD 
 TIMESTEP FLAG ... =           0           1           1           1
 TIMESTEP FLAG ... =           1           1           1           2
 TIMESTEP FLAG ... =           2           1           1           3
 TIMESTEP FLAG ... =           3           1           1           4
 TIMESTEP FLAG ... =           4           1           1           5


     5 CALLS TO PCG ROUTINE FOR TIME STEP   1 IN STRESS PERIOD    1
    22 TOTAL ITERATIONS

 OUTPUT CONTROL FOR STRESS PERIOD    1   TIME STEP   1
    SAVE BUDGET
 UBDSV1 SAVING "         STORAGE" ON UNIT  70 AT TIME STEP  1, STRESS PERIOD   1
 UBDSV2 SAVING "   CONSTANT HEAD" ON UNIT  70 AT TIME STEP  1, STRESS PERIOD   1
 UBDSV1 SAVING "FLOW RIGHT FACE " ON UNIT  70 AT TIME STEP  1, STRESS PERIOD   1
 UBDSV1 SAVING "FLOW FRONT FACE " ON UNIT  70 AT TIME STEP  1, STRESS PERIOD   1
 UBDSV1 SAVING "FLOW LOWER FACE " ON UNIT  70 AT TIME STEP  1, STRESS PERIOD   1
 UBDSV4 SAVING " HEAD DEP BOUNDS" ON UNIT  70 AT TIME STEP  1, STRESS PERIOD   1
 UBUDSV SAVING "    UZF INFILTR." ON UNIT 61 AT TIME STEP  1, STRESS PERIOD    1
 UBUDSV SAVING "    UZF RECHARGE" ON UNIT 61 AT TIME STEP  1, STRESS PERIOD    1
 UBDSV3 SAVING "    UZF RECHARGE" ON UNIT  70 AT TIME STEP  1, STRESS PERIOD   1
 UBUDSV SAVING " SURFACE LEAKAGE" ON UNIT 61 AT TIME STEP  1, STRESS PERIOD    1
 UBDSV3 SAVING " SURFACE LEAKAGE" ON UNIT  70 AT TIME STEP  1, STRESS PERIOD   1
 UBDSV2 SAVING "  STREAM LEAKAGE" ON UNIT  70 AT TIME STEP  1, STRESS PERIOD   1



 UBDSV4 SAVING "             MNW" ON UNIT  70 AT TIME STEP  1, STRESS PERIOD   1
 UBDSV4 SAVING "      FARM WELLS" ON UNIT  70 AT TIME STEP  1, STRESS PERIOD   1
 UBDSV3 SAVING "FARM  NET  RECH." ON UNIT  70 AT TIME STEP  1, STRESS PERIOD   1
 A TOTAL OF  24 HYDROGRAPH POINTS HAVE BEEN PREPARED.
 
 SOLVING FOR HEAD 
 TIMESTEP FLAG ... =           5           1           2           1
 TIMESTEP FLAG ... =           6           1           2           2
 TIMESTEP FLAG ... =           7           1           2           3
 TIMESTEP FLAG ... =           8           1           2           4
     4 CALLS TO PCG ROUTINE FOR TIME STEP   2 IN STRESS PERIOD    1
    12 TOTAL ITERATIONS

 OUTPUT CONTROL FOR STRESS PERIOD    1   TIME STEP   2
    SAVE BUDGET
 UBDSV1 SAVING "         STORAGE" ON UNIT  70 AT TIME STEP  2, STRESS PERIOD   1
 UBDSV2 SAVING "   CONSTANT HEAD" ON UNIT  70 AT TIME STEP  2, STRESS PERIOD   1
 UBDSV1 SAVING "FLOW RIGHT FACE " ON UNIT  70 AT TIME STEP  2, STRESS PERIOD   1
 UBDSV1 SAVING "FLOW FRONT FACE " ON UNIT  70 AT TIME STEP  2, STRESS PERIOD   1
 UBDSV1 SAVING "FLOW LOWER FACE " ON UNIT  70 AT TIME STEP  2, STRESS PERIOD   1
 UBDSV4 SAVING " HEAD DEP BOUNDS" ON UNIT  70 AT TIME STEP  2, STRESS PERIOD   1
 UBUDSV SAVING "    UZF INFILTR." ON UNIT 61 AT TIME STEP  2, STRESS PERIOD    1
 UBUDSV SAVING "    UZF RECHARGE" ON UNIT 61 AT TIME STEP  2, STRESS PERIOD    1
 UBDSV3 SAVING "    UZF RECHARGE" ON UNIT  70 AT TIME STEP  2, STRESS PERIOD   1
 UBUDSV SAVING " SURFACE LEAKAGE" ON UNIT 61 AT TIME STEP  2, STRESS PERIOD    1
 UBDSV3 SAVING " SURFACE LEAKAGE" ON UNIT  70 AT TIME STEP  2, STRESS PERIOD   1


UNSATURATED ZONE PACKAGE VOLUMETRIC BUDGET FOR  TIME STEP    2 STRESS PERIOD    1
  ------------------------------------------------------------------------------



     CUMULATIVE VOLUMES      L**3       RATES FOR THIS TIME STEP      L**3/T
     ------------------                 ------------------------

           IN:                                      IN:
           ---                                      ---
        INFILTRATION =      107655.5842          INFILTRATION =        3533.7496

          OUT:                                     OUT:
          ----                                     ----
              UZF ET =       0.0000E+00                UZF ET =       0.0000E+00
        UZF RECHARGE =       29126.7440          UZF RECHARGE =        1109.5070

            IN - OUT =       78528.8403              IN - OUT =        2424.2426

          STORAGE:                                 STORAGE:
          --------                                 --------
      STORAGE CHANGE =       78528.8157        STORAGE CHANGE =        2424.2426

 PERCENT DISCREPANCY IS DIFFERENCE BETWEEN IN-OUT MINUS CHANGE IN STORAGE
 DIVIDED BY THE AVERAGE OF IN AND OUT TIMES 100

 PERCENT DISCREPANCY =           0.00     PERCENT DISCREPANCY =           0.00






 UBDSV2 SAVING "  STREAM LEAKAGE" ON UNIT  70 AT TIME STEP  2, STRESS PERIOD   1



 UBDSV4 SAVING "             MNW" ON UNIT  70 AT TIME STEP  2, STRESS PERIOD   1
 UBDSV4 SAVING "      FARM WELLS" ON UNIT  70 AT TIME STEP  2, STRESS PERIOD   1
 UBDSV3 SAVING "FARM  NET  RECH." ON UNIT  70 AT TIME STEP  2, STRESS PERIOD   1
1
  VOLUMETRIC BUDGET FOR ENTIRE MODEL AT END OF TIME STEP  2 IN STRESS PERIOD   1
  ------------------------------------------------------------------------------

     CUMULATIVE VOLUMES      L**3       RATES FOR THIS TIME STEP      L**3/T
     ------------------                 ------------------------

           IN:                                      IN:
           ---                                      ---
             STORAGE =       10603.4238               STORAGE =         119.2253
       CONSTANT HEAD =           0.0000         CONSTANT HEAD =           0.0000
     HEAD DEP BOUNDS =      119696.7344       HEAD DEP BOUNDS =        3930.4563
        UZF RECHARGE =       29126.7422          UZF RECHARGE =        1109.5068
               GW ET =           0.0000                 GW ET =           0.0000
     SURFACE LEAKAGE =           0.0000       SURFACE LEAKAGE =           0.0000
      STREAM LEAKAGE =      242618.3438        STREAM LEAKAGE =        7856.3760
                 MNW =        3943.6284                   MNW =         126.0115
          FARM WELLS =           0.0000            FARM WELLS =           0.0000
    FARM  NET  RECH. =      788173.2500      FARM  NET  RECH. =       25830.2578

            TOTAL IN =     1194162.1250              TOTAL IN =       38971.8359

          OUT:                                     OUT:
          ----                                     ----
             STORAGE =      258338.7188               STORAGE =        7614.3701
       CONSTANT HEAD =           0.0000         CONSTANT HEAD =           0.0000
     HEAD DEP BOUNDS =      581516.6250       HEAD DEP BOUNDS =       19125.1426
        UZF RECHARGE =           0.0000          UZF RECHARGE =           0.0000
               GW ET =           0.0000                 GW ET =           0.0000
     SURFACE LEAKAGE =         959.0167       SURFACE LEAKAGE =          32.4237
      STREAM LEAKAGE =      330339.7500        STREAM LEAKAGE =       11415.6230
                 MNW =        3943.6284                   MNW =         126.0115
          FARM WELLS =           0.0000            FARM WELLS =           0.0000
    FARM  NET  RECH. =       19064.2344      FARM  NET  RECH. =         658.9030

           TOTAL OUT =     1194162.0000             TOTAL OUT =       38972.4727

            IN - OUT =           0.1250              IN - OUT =          -0.6367

 PERCENT DISCREPANCY =           0.00     PERCENT DISCREPANCY =           0.00






          TIME SUMMARY AT END OF TIME STEP   2 IN STRESS PERIOD    1
                    SECONDS     MINUTES      HOURS       DAYS        YEARS
                    -----------------------------------------------------------
   TIME STEP LENGTH 1.31414E+06  21902.      365.04      15.210     4.16427E-02
 STRESS PERIOD TIME 2.62829E+06  43805.      730.08      30.420     8.32854E-02
         TOTAL TIME 2.62829E+06  43805.      730.08      30.420     8.32854E-02
1
1
                            STRESS PERIOD NO.    2, LENGTH =   30.42000    
                            -----------------------------------------------

                              NUMBER OF TIME STEPS =     2

                               MULTIPLIER FOR DELT =     1.000

                            INITIAL TIME STEP SIZE =   15.21000    

 REUSING NON-PARAMETER GHB CELLS FROM LAST STRESS PERIOD

     92 GHB CELLS

 REUSING STREAM SEGMENT DATA FROM LAST STRESS PERIOD
 USING INFILTRATION RATE FROM PREVIOUS STRESS 
 PERIOD.CURRENT PERIOD IS:            2

 REUSING MNW7  FROM LAST STRESS PERIOD

 Parameter:  WELLS1
 WELL NO. LAYER    ROW    COL  F-WELL ID    FARM ID         QMAX         QMAXRESET       
 ----------------------------------------------------------------------------------------
       1      1      5      6          1          1      5.0000E+03      0.0000E+00
       2      1      8      6          2          1      5.0000E+03      0.0000E+00
       3      1      8      9          3          1      5.0000E+03      0.0000E+00
       4      1      5      9          4          2      3.0000E+03      0.0000E+00
       5      1      6     10          5          2      2.0000E+03      0.0000E+00
       6      1      7     11          6          2      1.0000E+03      0.0000E+00
       7      1     18      3          7          3      2.0000E+03      0.0000E+00
       8      1     21      3          8          3      4.0000E+03      0.0000E+00
       9      1     18     19          9          4      3.0000E+03      0.0000E+00
      10      1     21     19         10          4      5.0000E+03      0.0000E+00
      11      0      6      2        -11          5      5.0000E+03      1.0000E+00
      12      0      8      2        -12          5      5.0000E+03      1.0000E+00
      13      0     10      2        -13          5      5.0000E+03      1.0000E+00
      14      0      3     19        -14          6      1.0000E+04      1.0000E+00
      15      0      6     17        -15          6      6.0000E+03      1.0000E+00

 NUMBER OF ACTIVE FARM WELLS:       15

 FARM-ID  NUMBER OF WELLS PER FARM  TOTAL MAX.CAPACITY PER FARM
       1                         3                   15000.0000
       2                         3                    6000.0000
       3                         2                    6000.0000
       4                         2                    8000.0000
       5                         3                   15000.0000
       6                         2                   16000.0000
       7                         0                       0.0000
       8                         0                       0.0000
 Reading list on unit  20
 LIST SCALING FACTOR= 0.65000    
 (THE SCALE FACTOR WAS APPLIED TO FIELDS 2 - 7)
 Reading list on unit  30
 Reading list on unit  40

  REF. EVAPOTRANSPIRATION =  1.500000E-03
 Reading list on unit  50

Transpiratory and Evaporative Fractions of Crop Consumptive Use
    % Transpiration % Evap. for Precip. % Evap. for Irrig.
    1          0.000          1.000          0.500
    2          0.822          0.178          0.158
    3          0.845          0.155          0.155
    4          0.125          0.875          0.875
    5          0.783          0.217          0.000
    6          0.400          0.600          0.000
 Reading list on unit  60

FRACTIONS OF IN-EFFICIENT LOSSES TO SW-RUNOFF FROM 
     PRECIPITATION:  IRRIGATION:
    1          0.500          0.600
    2          0.400          0.300
    3          0.600          0.500
    4          0.700          0.600
    5          0.850          0.000
    6          0.750          0.000

       PRECIPITATION FLUX =  2.630000E-03

 OPENING FILE ON UNIT  99:
 NRDV.IN                                                                                                                                                                                                                                                                                                                                                                                                                                                                                                             
 READING SCALE FACTOR LIST ON UNIT  80
 FIELD     SCALE FACTOR
     1       1.0000    
     2       2.0000    
     3       1.0000    
     4       1.0000    

UNRANKED LIST OF NON-ROUTED DELIVERIES TO FARMS [L3]:
TYPE:             1

FARM-ID  VOLUME:
      1   3.000E+04
      2   3.000E+04
      3   4.000E+04
      4   2.000E+04
      5   2.000E+04
      6   4.000E+04
      7   0.000E+00
      8   0.000E+00

FARM-ID  PRIORITY RANK OF NRD-TYPE:
      1           1
      2           1
      3           1
      4           1
      5           1
      6           1
      7           1
      8           1

FARM-ID  USE-FLAG:
         0 = SUFFICIENT USE
         1 = ABSOLUTE USE (RECHARGE SURPLUS BACK INTO CANAL)
         2 = ABSOLUTE USE (INJECT SURPLUS INTO FARM-WELLS)
      1           0
      2           0
      3           0
      4           0
      5           0
      6           0
      7           0
      8           0

LIST OF NON-ROUTED DELIVERIES IN RANKED SEQUENCE [L3/T]:

FARM-ID  RATE:
      1   9.862E+02
      2   9.862E+02
      3   1.315E+03
      4   6.575E+02
      5   6.575E+02
      6   1.315E+03
      7   0.000E+00
      8   0.000E+00

FARM-ID  USE-FLAG:
         0 = SUFFICIENT USE
         1 = ABSOLUTE USE (RECHARGE SURPLUS BACK INTO CANAL)
         2 = ABSOLUTE USE (INJECT SURPLUS INTO FARM-WELLS)
      1           0
      2           0
      3           0
      4           0
      5           0
      6           0
      7           0
      8           0

FARM ALLOTMENT HEIGHT [L]:   0.000
 
 SOLVING FOR HEAD 
 TIMESTEP FLAG ... =           0           2           1           1
 TIMESTEP FLAG ... =           1           2           1           2
 TIMESTEP FLAG ... =           2           2           1           3
 TIMESTEP FLAG ... =           3           2           1           4
 TIMESTEP FLAG ... =           4           2           1           5
 TIMESTEP FLAG ... =           5           2           1           6


     6 CALLS TO PCG ROUTINE FOR TIME STEP   1 IN STRESS PERIOD    2
    24 TOTAL ITERATIONS

 OUTPUT CONTROL FOR STRESS PERIOD    2   TIME STEP   1
    SAVE BUDGET
 UBDSV1 SAVING "         STORAGE" ON UNIT  70 AT TIME STEP  1, STRESS PERIOD   2
 UBDSV2 SAVING "   CONSTANT HEAD" ON UNIT  70 AT TIME STEP  1, STRESS PERIOD   2
 UBDSV1 SAVING "FLOW RIGHT FACE " ON UNIT  70 AT TIME STEP  1, STRESS PERIOD   2
 UBDSV1 SAVING "FLOW FRONT FACE " ON UNIT  70 AT TIME STEP  1, STRESS PERIOD   2
 UBDSV1 SAVING "FLOW LOWER FACE " ON UNIT  70 AT TIME STEP  1, STRESS PERIOD   2
 UBDSV4 SAVING " HEAD DEP BOUNDS" ON UNIT  70 AT TIME STEP  1, STRESS PERIOD   2
 UBUDSV SAVING "    UZF INFILTR." ON UNIT 61 AT TIME STEP  1, STRESS PERIOD    2
 UBUDSV SAVING "    UZF RECHARGE" ON UNIT 61 AT TIME STEP  1, STRESS PERIOD    2
 UBDSV3 SAVING "    UZF RECHARGE" ON UNIT  70 AT TIME STEP  1, STRESS PERIOD   2
 UBUDSV SAVING " SURFACE LEAKAGE" ON UNIT 61 AT TIME STEP  1, STRESS PERIOD    2
 UBDSV3 SAVING " SURFACE LEAKAGE" ON UNIT  70 AT TIME STEP  1, STRESS PERIOD   2
 UBDSV2 SAVING "  STREAM LEAKAGE" ON UNIT  70 AT TIME STEP  1, STRESS PERIOD   2



 UBDSV4 SAVING "             MNW" ON UNIT  70 AT TIME STEP  1, STRESS PERIOD   2
 UBDSV4 SAVING "      FARM WELLS" ON UNIT  70 AT TIME STEP  1, STRESS PERIOD   2
 UBDSV3 SAVING "FARM  NET  RECH." ON UNIT  70 AT TIME STEP  1, STRESS PERIOD   2
 
 SOLVING FOR HEAD 
 TIMESTEP FLAG ... =           6           2           2           1
 TIMESTEP FLAG ... =           7           2           2           2
 TIMESTEP FLAG ... =           8           2           2           3
     3 CALLS TO PCG ROUTINE FOR TIME STEP   2 IN STRESS PERIOD    2
     9 TOTAL ITERATIONS

 OUTPUT CONTROL FOR STRESS PERIOD    2   TIME STEP   2
    SAVE BUDGET
 UBDSV1 SAVING "         STORAGE" ON UNIT  70 AT TIME STEP  2, STRESS PERIOD   2
 UBDSV2 SAVING "   CONSTANT HEAD" ON UNIT  70 AT TIME STEP  2, STRESS PERIOD   2
 UBDSV1 SAVING "FLOW RIGHT FACE " ON UNIT  70 AT TIME STEP  2, STRESS PERIOD   2
 UBDSV1 SAVING "FLOW FRONT FACE " ON UNIT  70 AT TIME STEP  2, STRESS PERIOD   2
 UBDSV1 SAVING "FLOW LOWER FACE " ON UNIT  70 AT TIME STEP  2, STRESS PERIOD   2
 UBDSV4 SAVING " HEAD DEP BOUNDS" ON UNIT  70 AT TIME STEP  2, STRESS PERIOD   2
 UBUDSV SAVING "    UZF INFILTR." ON UNIT 61 AT TIME STEP  2, STRESS PERIOD    2
 UBUDSV SAVING "    UZF RECHARGE" ON UNIT 61 AT TIME STEP  2, STRESS PERIOD    2
 UBDSV3 SAVING "    UZF RECHARGE" ON UNIT  70 AT TIME STEP  2, STRESS PERIOD   2
 UBUDSV SAVING " SURFACE LEAKAGE" ON UNIT 61 AT TIME STEP  2, STRESS PERIOD    2
 UBDSV3 SAVING " SURFACE LEAKAGE" ON UNIT  70 AT TIME STEP  2, STRESS PERIOD   2


UNSATURATED ZONE PACKAGE VOLUMETRIC BUDGET FOR  TIME STEP    2 STRESS PERIOD    2
  ------------------------------------------------------------------------------



     CUMULATIVE VOLUMES      L**3       RATES FOR THIS TIME STEP      L**3/T
     ------------------                 ------------------------

           IN:                                      IN:
           ---                                      ---
        INFILTRATION =      230594.4925          INFILTRATION =        4013.5956

          OUT:                                     OUT:
          ----                                     ----
              UZF ET =       0.0000E+00                UZF ET =       0.0000E+00
        UZF RECHARGE =       67902.6105          UZF RECHARGE =        1247.5016

            IN - OUT =      162691.8820              IN - OUT =        2766.0940

          STORAGE:                                 STORAGE:
          --------                                 --------
      STORAGE CHANGE =      162691.8575        STORAGE CHANGE =        2766.0940

 PERCENT DISCREPANCY IS DIFFERENCE BETWEEN IN-OUT MINUS CHANGE IN STORAGE
 DIVIDED BY THE AVERAGE OF IN AND OUT TIMES 100

 PERCENT DISCREPANCY =           0.00     PERCENT DISCREPANCY =           0.00






 UBDSV2 SAVING "  STREAM LEAKAGE" ON UNIT  70 AT TIME STEP  2, STRESS PERIOD   2



 UBDSV4 SAVING "             MNW" ON UNIT  70 AT TIME STEP  2, STRESS PERIOD   2
 UBDSV4 SAVING "      FARM WELLS" ON UNIT  70 AT TIME STEP  2, STRESS PERIOD   2
 UBDSV3 SAVING "FARM  NET  RECH." ON UNIT  70 AT TIME STEP  2, STRESS PERIOD   2
1
  VOLUMETRIC BUDGET FOR ENTIRE MODEL AT END OF TIME STEP  2 IN STRESS PERIOD   2
  ------------------------------------------------------------------------------

     CUMULATIVE VOLUMES      L**3       RATES FOR THIS TIME STEP      L**3/T
     ------------------                 ------------------------

           IN:                                      IN:
           ---                                      ---
             STORAGE =       17246.5801               STORAGE =          83.8523
       CONSTANT HEAD =           0.0000         CONSTANT HEAD =           0.0000
     HEAD DEP BOUNDS =      238006.8438       HEAD DEP BOUNDS =        3873.1699
        UZF RECHARGE =       67902.6094          UZF RECHARGE =        1247.5016
               GW ET =           0.0000                 GW ET =           0.0000
     SURFACE LEAKAGE =           0.0000       SURFACE LEAKAGE =           0.0000
      STREAM LEAKAGE =      481857.7812        STREAM LEAKAGE =        7797.1816
                 MNW =        7704.5742                   MNW =         123.3839
          FARM WELLS =           0.0000            FARM WELLS =           0.0000
    FARM  NET  RECH. =     1685997.5000      FARM  NET  RECH. =       29495.2559

            TOTAL IN =     2498716.0000              TOTAL IN =       42620.3438

          OUT:                                     OUT:
          ----                                     ----
             STORAGE =      494131.3750               STORAGE =        7036.2227
       CONSTANT HEAD =           0.0000         CONSTANT HEAD =           0.0000
     HEAD DEP BOUNDS =     1164319.0000       HEAD DEP BOUNDS =       19167.8125
        UZF RECHARGE =           0.0000          UZF RECHARGE =           0.0000
               GW ET =           0.0000                 GW ET =           0.0000
     SURFACE LEAKAGE =        2185.4419       SURFACE LEAKAGE =          42.1322
      STREAM LEAKAGE =      708478.4375        STREAM LEAKAGE =       12813.3301
                 MNW =        7704.5742                   MNW =         123.3839
          FARM WELLS =           0.0000            FARM WELLS =           0.0000
    FARM  NET  RECH. =      121865.1094      FARM  NET  RECH. =        3435.9963

           TOTAL OUT =     2498683.7500             TOTAL OUT =       42618.8789

            IN - OUT =          32.2500              IN - OUT =           1.4648

 PERCENT DISCREPANCY =           0.00     PERCENT DISCREPANCY =           0.00






          TIME SUMMARY AT END OF TIME STEP   2 IN STRESS PERIOD    2
                    SECONDS     MINUTES      HOURS       DAYS        YEARS
                    -----------------------------------------------------------
   TIME STEP LENGTH 1.31414E+06  21902.      365.04      15.210     4.16427E-02
 STRESS PERIOD TIME 2.62829E+06  43805.      730.08      30.420     8.32854E-02
         TOTAL TIME 5.25658E+06  87610.      1460.2      60.840     0.16657    
1
1
                            STRESS PERIOD NO.    3, LENGTH =   30.42000    
                            -----------------------------------------------

                              NUMBER OF TIME STEPS =     2

                               MULTIPLIER FOR DELT =     1.000

                            INITIAL TIME STEP SIZE =   15.21000    

 REUSING NON-PARAMETER GHB CELLS FROM LAST STRESS PERIOD

     92 GHB CELLS

 REUSING STREAM SEGMENT DATA FROM LAST STRESS PERIOD
 USING INFILTRATION RATE FROM PREVIOUS STRESS 
 PERIOD.CURRENT PERIOD IS:            3

 REUSING MNW7  FROM LAST STRESS PERIOD

 Parameter:  WELLS1
 WELL NO. LAYER    ROW    COL  F-WELL ID    FARM ID         QMAX         QMAXRESET       
 ----------------------------------------------------------------------------------------
       1      1      5      6          1          1      5.0000E+03      0.0000E+00
       2      1      8      6          2          1      5.0000E+03      0.0000E+00
       3      1      8      9          3          1      5.0000E+03      0.0000E+00
       4      1      5      9          4          2      3.0000E+03      0.0000E+00
       5      1      6     10          5          2      2.0000E+03      0.0000E+00
       6      1      7     11          6          2      1.0000E+03      0.0000E+00
       7      1     18      3          7          3      2.0000E+03      0.0000E+00
       8      1     21      3          8          3      4.0000E+03      0.0000E+00
       9      1     18     19          9          4      3.0000E+03      0.0000E+00
      10      1     21     19         10          4      5.0000E+03      0.0000E+00
      11      0      6      2        -11          5      5.0000E+03      1.0000E+00
      12      0      8      2        -12          5      5.0000E+03      1.0000E+00
      13      0     10      2        -13          5      5.0000E+03      1.0000E+00
      14      0      3     19        -14          6      1.0000E+04      1.0000E+00
      15      0      6     17        -15          6      6.0000E+03      1.0000E+00

 NUMBER OF ACTIVE FARM WELLS:       15

 FARM-ID  NUMBER OF WELLS PER FARM  TOTAL MAX.CAPACITY PER FARM
       1                         3                   15000.0000
       2                         3                    6000.0000
       3                         2                    6000.0000
       4                         2                    8000.0000
       5                         3                   15000.0000
       6                         2                   16000.0000
       7                         0                       0.0000
       8                         0                       0.0000
 Reading list on unit  20
 LIST SCALING FACTOR= 0.70000    
 (THE SCALE FACTOR WAS APPLIED TO FIELDS 2 - 7)
 Reading list on unit  30
 Reading list on unit  40

  REF. EVAPOTRANSPIRATION =  2.890000E-03
 Reading list on unit  50

Transpiratory and Evaporative Fractions of Crop Consumptive Use
    % Transpiration % Evap. for Precip. % Evap. for Irrig.
    1          0.221          0.779          0.500
    2          0.860          0.140          0.140
    3          0.000          1.000          1.000
    4          0.125          0.875          0.875
    5          0.835          0.165          0.000
    6          0.600          0.400          0.000
 Reading list on unit  60

FRACTIONS OF IN-EFFICIENT LOSSES TO SW-RUNOFF FROM 
     PRECIPITATION:  IRRIGATION:
    1          0.500          0.600
    2          0.400          0.300
    3          0.600          0.500
    4          0.700          0.600
    5          0.500          0.000
    6          0.300          0.000

       PRECIPITATION FLUX =  1.840000E-03

 OPENING FILE ON UNIT  99:
 NRDV.IN                                                                                                                                                                                                                                                                                                                                                                                                                                                                                                             
 READING SCALE FACTOR LIST ON UNIT  80
 FIELD     SCALE FACTOR
     1       1.0000    
     2       3.0000    
     3       1.0000    
     4       1.0000    

UNRANKED LIST OF NON-ROUTED DELIVERIES TO FARMS [L3]:
TYPE:             1

FARM-ID  VOLUME:
      1   4.500E+04
      2   4.500E+04
      3   6.000E+04
      4   3.000E+04
      5   3.000E+04
[...]
 TIMESTEP FLAG ... =          10          23           2           3
 TIMESTEP FLAG ... =          11          23           2           4
 TIMESTEP FLAG ... =          12          23           2           5
 TIMESTEP FLAG ... =          13          23           2           6
     6 CALLS TO PCG ROUTINE FOR TIME STEP   2 IN STRESS PERIOD   23
    21 TOTAL ITERATIONS

 OUTPUT CONTROL FOR STRESS PERIOD   23   TIME STEP   2
    SAVE BUDGET
 UBDSV1 SAVING "         STORAGE" ON UNIT  70 AT TIME STEP  2, STRESS PERIOD  23
 UBDSV2 SAVING "   CONSTANT HEAD" ON UNIT  70 AT TIME STEP  2, STRESS PERIOD  23
 UBDSV1 SAVING "FLOW RIGHT FACE " ON UNIT  70 AT TIME STEP  2, STRESS PERIOD  23
 UBDSV1 SAVING "FLOW FRONT FACE " ON UNIT  70 AT TIME STEP  2, STRESS PERIOD  23
 UBDSV1 SAVING "FLOW LOWER FACE " ON UNIT  70 AT TIME STEP  2, STRESS PERIOD  23
 UBDSV4 SAVING " HEAD DEP BOUNDS" ON UNIT  70 AT TIME STEP  2, STRESS PERIOD  23
 UBUDSV SAVING "    UZF INFILTR." ON UNIT 61 AT TIME STEP  2, STRESS PERIOD   23
 UBUDSV SAVING "    UZF RECHARGE" ON UNIT 61 AT TIME STEP  2, STRESS PERIOD   23
 UBDSV3 SAVING "    UZF RECHARGE" ON UNIT  70 AT TIME STEP  2, STRESS PERIOD  23
 UBUDSV SAVING " SURFACE LEAKAGE" ON UNIT 61 AT TIME STEP  2, STRESS PERIOD   23
 UBDSV3 SAVING " SURFACE LEAKAGE" ON UNIT  70 AT TIME STEP  2, STRESS PERIOD  23


UNSATURATED ZONE PACKAGE VOLUMETRIC BUDGET FOR  TIME STEP    2 STRESS PERIOD   23
  ------------------------------------------------------------------------------



     CUMULATIVE VOLUMES      L**3       RATES FOR THIS TIME STEP      L**3/T
     ------------------                 ------------------------

           IN:                                      IN:
           ---                                      ---
        INFILTRATION =     2050761.6805          INFILTRATION =        5184.6092

          OUT:                                     OUT:
          ----                                     ----
              UZF ET =       0.0000E+00                UZF ET =       0.0000E+00
        UZF RECHARGE =     1457492.6306          UZF RECHARGE =        2136.3482

            IN - OUT =      593269.0498              IN - OUT =        3048.2610

          STORAGE:                                 STORAGE:
          --------                                 --------
      STORAGE CHANGE =      593203.9430        STORAGE CHANGE =        3048.0398

 PERCENT DISCREPANCY IS DIFFERENCE BETWEEN IN-OUT MINUS CHANGE IN STORAGE
 DIVIDED BY THE AVERAGE OF IN AND OUT TIMES 100

 PERCENT DISCREPANCY =           0.00     PERCENT DISCREPANCY =           0.00






 UBDSV2 SAVING "  STREAM LEAKAGE" ON UNIT  70 AT TIME STEP  2, STRESS PERIOD  23



 UBDSV4 SAVING "             MNW" ON UNIT  70 AT TIME STEP  2, STRESS PERIOD  23
 UBDSV4 SAVING "      FARM WELLS" ON UNIT  70 AT TIME STEP  2, STRESS PERIOD  23
 UBDSV3 SAVING "FARM  NET  RECH." ON UNIT  70 AT TIME STEP  2, STRESS PERIOD  23
1
  VOLUMETRIC BUDGET FOR ENTIRE MODEL AT END OF TIME STEP  2 IN STRESS PERIOD  23
  ------------------------------------------------------------------------------

     CUMULATIVE VOLUMES      L**3       RATES FOR THIS TIME STEP      L**3/T
     ------------------                 ------------------------

           IN:                                      IN:
           ---                                      ---
             STORAGE =    13485891.0000               STORAGE =         234.3147
       CONSTANT HEAD =           0.0000         CONSTANT HEAD =           0.0000
     HEAD DEP BOUNDS =     4477186.0000       HEAD DEP BOUNDS =        7977.8638
        UZF RECHARGE =     1457492.5000          UZF RECHARGE =        2136.3479
               GW ET =           0.0000                 GW ET =           0.0000
     SURFACE LEAKAGE =           0.0000       SURFACE LEAKAGE =           0.0000
      STREAM LEAKAGE =     9091528.0000        STREAM LEAKAGE =       20124.7832
                 MNW =       37825.1367                   MNW =         104.6576
          FARM WELLS =           0.0000            FARM WELLS =           0.0000
    FARM  NET  RECH. =    10062828.0000      FARM  NET  RECH. =       12785.5576

            TOTAL IN =    38612752.0000              TOTAL IN =       43363.5234

          OUT:                                     OUT:
          ----                                     ----
             STORAGE =     5524321.5000               STORAGE =       25365.5781
       CONSTANT HEAD =           0.0000         CONSTANT HEAD =           0.0000
     HEAD DEP BOUNDS =    12087215.0000       HEAD DEP BOUNDS =       16018.4424
        UZF RECHARGE =           0.0000          UZF RECHARGE =           0.0000
               GW ET =           0.0000                 GW ET =           0.0000
     SURFACE LEAKAGE =        2869.4824       SURFACE LEAKAGE =           0.0000
      STREAM LEAKAGE =     1993000.2500        STREAM LEAKAGE =         592.0197
                 MNW =     6748697.0000                   MNW =         104.6576
          FARM WELLS =     7127010.5000            FARM WELLS =          46.5115
    FARM  NET  RECH. =     5129673.0000      FARM  NET  RECH. =        1232.3323

           TOTAL OUT =    38612788.0000             TOTAL OUT =       43359.5391

            IN - OUT =         -36.0000              IN - OUT =           3.9844

 PERCENT DISCREPANCY =           0.00     PERCENT DISCREPANCY =           0.01






          TIME SUMMARY AT END OF TIME STEP   2 IN STRESS PERIOD   23
                    SECONDS     MINUTES      HOURS       DAYS        YEARS
                    -----------------------------------------------------------
   TIME STEP LENGTH 1.31414E+06  21902.      365.04      15.210     4.16427E-02
 STRESS PERIOD TIME 2.62829E+06  43805.      730.08      30.420     8.32854E-02
         TOTAL TIME 6.04506E+07 1.00751E+06  16792.      699.66      1.9156    
1
1
                            STRESS PERIOD NO.   24, LENGTH =   30.42000    
                            -----------------------------------------------

                              NUMBER OF TIME STEPS =     2

                               MULTIPLIER FOR DELT =     1.000

                            INITIAL TIME STEP SIZE =   15.21000    

 REUSING NON-PARAMETER GHB CELLS FROM LAST STRESS PERIOD

     92 GHB CELLS

 REUSING STREAM SEGMENT DATA FROM LAST STRESS PERIOD
 USING INFILTRATION RATE FROM PREVIOUS STRESS 
 PERIOD.CURRENT PERIOD IS:           24

 REUSING MNW7  FROM LAST STRESS PERIOD

 Parameter:  WELLS1
 WELL NO. LAYER    ROW    COL  F-WELL ID    FARM ID         QMAX         QMAXRESET       
 ----------------------------------------------------------------------------------------
       1      1      5      6          1          1      5.0000E+03      0.0000E+00
       2      1      8      6          2          1      5.0000E+03      0.0000E+00
       3      1      8      9          3          1      5.0000E+03      0.0000E+00
       4      1      5      9          4          2      3.0000E+03      0.0000E+00
       5      1      6     10          5          2      2.0000E+03      0.0000E+00
       6      1      7     11          6          2      1.0000E+03      0.0000E+00
       7      1     18      3          7          3      2.0000E+03      0.0000E+00
       8      1     21      3          8          3      4.0000E+03      0.0000E+00
       9      1     18     19          9          4      3.0000E+03      0.0000E+00
      10      1     21     19         10          4      5.0000E+03      0.0000E+00
      11      0      6      2        -11          5      5.0000E+03      1.0000E+00
      12      0      8      2        -12          5      5.0000E+03      1.0000E+00
      13      0     10      2        -13          5      5.0000E+03      1.0000E+00
      14      0      3     19        -14          6      1.0000E+04      1.0000E+00
      15      0      6     17        -15          6      6.0000E+03      1.0000E+00

 NUMBER OF ACTIVE FARM WELLS:       15

 FARM-ID  NUMBER OF WELLS PER FARM  TOTAL MAX.CAPACITY PER FARM
       1                         3                   15000.0000
       2                         3                    6000.0000
       3                         2                    6000.0000
       4                         2                    8000.0000
       5                         3                   15000.0000
       6                         2                   16000.0000
       7                         0                       0.0000
       8                         0                       0.0000
 Reading list on unit  20
 LIST SCALING FACTOR= 0.70000    
 (THE SCALE FACTOR WAS APPLIED TO FIELDS 2 - 7)
 Reading list on unit  30
 Reading list on unit  40

  REF. EVAPOTRANSPIRATION =  9.600000E-04
 Reading list on unit  50

Transpiratory and Evaporative Fractions of Crop Consumptive Use
    % Transpiration % Evap. for Precip. % Evap. for Irrig.
    1          0.000          1.000          0.500
    2          0.000          1.000          0.350
    3          0.957          0.043          0.043
    4          0.125          0.875          0.875
    5          0.926          0.074          0.000
    6          0.200          0.800          0.000
 Reading list on unit  60

FRACTIONS OF IN-EFFICIENT LOSSES TO SW-RUNOFF FROM 
     PRECIPITATION:  IRRIGATION:
    1          0.500          0.600
    2          0.400          0.300
    3          0.600          0.500
    4          0.700          0.600
    5          0.830          0.000
    6          0.730          0.000

       PRECIPITATION FLUX =  2.100000E-03

 OPENING FILE ON UNIT  99:
 NRDV.IN                                                                                                                                                                                                                                                                                                                                                                                                                                                                                                             
 READING SCALE FACTOR LIST ON UNIT  80
 FIELD     SCALE FACTOR
     1       1.0000    
     2       1.0000    
     3       1.0000    
     4       1.0000    

UNRANKED LIST OF NON-ROUTED DELIVERIES TO FARMS [L3]:
TYPE:             1

FARM-ID  VOLUME:
      1   1.500E+04
      2   1.500E+04
      3   2.000E+04
      4   1.000E+04
      5   1.000E+04
      6   2.000E+04
      7   0.000E+00
      8   0.000E+00

FARM-ID  PRIORITY RANK OF NRD-TYPE:
      1           1
      2           1
      3           1
      4           1
      5           1
      6           1
      7           1
      8           1

FARM-ID  USE-FLAG:
         0 = SUFFICIENT USE
         1 = ABSOLUTE USE (RECHARGE SURPLUS BACK INTO CANAL)
         2 = ABSOLUTE USE (INJECT SURPLUS INTO FARM-WELLS)
      1           0
      2           0
      3           0
      4           0
      5           0
      6           0
      7           0
      8           0

LIST OF NON-ROUTED DELIVERIES IN RANKED SEQUENCE [L3/T]:

FARM-ID  RATE:
      1   4.931E+02
      2   4.931E+02
      3   6.575E+02
      4   3.287E+02
      5   3.287E+02
      6   6.575E+02
      7   0.000E+00
      8   0.000E+00

FARM-ID  USE-FLAG:
         0 = SUFFICIENT USE
         1 = ABSOLUTE USE (RECHARGE SURPLUS BACK INTO CANAL)
         2 = ABSOLUTE USE (INJECT SURPLUS INTO FARM-WELLS)
      1           0
      2           0
      3           0
      4           0
      5           0
      6           0
      7           0
      8           0

FARM ALLOTMENT HEIGHT [L]:   0.000
 
 SOLVING FOR HEAD 
 TIMESTEP FLAG ... =           0          24           1           1
 TIMESTEP FLAG ... =           1          24           1           2
 TIMESTEP FLAG ... =           2          24           1           3
 TIMESTEP FLAG ... =           3          24           1           4
 TIMESTEP FLAG ... =           4          24           1           5
 TIMESTEP FLAG ... =           5          24           1           6
 TIMESTEP FLAG ... =           6          24           1           7


     7 CALLS TO PCG ROUTINE FOR TIME STEP   1 IN STRESS PERIOD   24
    28 TOTAL ITERATIONS

 OUTPUT CONTROL FOR STRESS PERIOD   24   TIME STEP   1
    SAVE BUDGET
 UBDSV1 SAVING "         STORAGE" ON UNIT  70 AT TIME STEP  1, STRESS PERIOD  24
 UBDSV2 SAVING "   CONSTANT HEAD" ON UNIT  70 AT TIME STEP  1, STRESS PERIOD  24
 UBDSV1 SAVING "FLOW RIGHT FACE " ON UNIT  70 AT TIME STEP  1, STRESS PERIOD  24
 UBDSV1 SAVING "FLOW FRONT FACE " ON UNIT  70 AT TIME STEP  1, STRESS PERIOD  24
 UBDSV1 SAVING "FLOW LOWER FACE " ON UNIT  70 AT TIME STEP  1, STRESS PERIOD  24
 UBDSV4 SAVING " HEAD DEP BOUNDS" ON UNIT  70 AT TIME STEP  1, STRESS PERIOD  24
 UBUDSV SAVING "    UZF INFILTR." ON UNIT 61 AT TIME STEP  1, STRESS PERIOD   24
 UBUDSV SAVING "    UZF RECHARGE" ON UNIT 61 AT TIME STEP  1, STRESS PERIOD   24
 UBDSV3 SAVING "    UZF RECHARGE" ON UNIT  70 AT TIME STEP  1, STRESS PERIOD  24
 UBUDSV SAVING " SURFACE LEAKAGE" ON UNIT 61 AT TIME STEP  1, STRESS PERIOD   24
 UBDSV3 SAVING " SURFACE LEAKAGE" ON UNIT  70 AT TIME STEP  1, STRESS PERIOD  24
 UBDSV2 SAVING "  STREAM LEAKAGE" ON UNIT  70 AT TIME STEP  1, STRESS PERIOD  24



 UBDSV4 SAVING "             MNW" ON UNIT  70 AT TIME STEP  1, STRESS PERIOD  24
 UBDSV4 SAVING "      FARM WELLS" ON UNIT  70 AT TIME STEP  1, STRESS PERIOD  24
 UBDSV3 SAVING "FARM  NET  RECH." ON UNIT  70 AT TIME STEP  1, STRESS PERIOD  24
 
 SOLVING FOR HEAD 
 TIMESTEP FLAG ... =           7          24           2           1
 TIMESTEP FLAG ... =           8          24           2           2
 TIMESTEP FLAG ... =           9          24           2           3
 TIMESTEP FLAG ... =          10          24           2           4
 TIMESTEP FLAG ... =          11          24           2           5
 TIMESTEP FLAG ... =          12          24           2           6
 TIMESTEP FLAG ... =          13          24           2           7
 TIMESTEP FLAG ... =          14          24           2           8
     8 CALLS TO PCG ROUTINE FOR TIME STEP   2 IN STRESS PERIOD   24
    27 TOTAL ITERATIONS

 OUTPUT CONTROL FOR STRESS PERIOD   24   TIME STEP   2
    PRINT BUDGET
    SAVE HEAD FOR ALL LAYERS
    SAVE BUDGET
 UBDSV1 SAVING "         STORAGE" ON UNIT  70 AT TIME STEP  2, STRESS PERIOD  24
 UBDSV2 SAVING "   CONSTANT HEAD" ON UNIT  70 AT TIME STEP  2, STRESS PERIOD  24
 UBDSV1 SAVING "FLOW RIGHT FACE " ON UNIT  70 AT TIME STEP  2, STRESS PERIOD  24
 UBDSV1 SAVING "FLOW FRONT FACE " ON UNIT  70 AT TIME STEP  2, STRESS PERIOD  24
 UBDSV1 SAVING "FLOW LOWER FACE " ON UNIT  70 AT TIME STEP  2, STRESS PERIOD  24
 UBDSV4 SAVING " HEAD DEP BOUNDS" ON UNIT  70 AT TIME STEP  2, STRESS PERIOD  24
 UBUDSV SAVING "    UZF INFILTR." ON UNIT 61 AT TIME STEP  2, STRESS PERIOD   24
 UBUDSV SAVING "    UZF RECHARGE" ON UNIT 61 AT TIME STEP  2, STRESS PERIOD   24
 UBDSV3 SAVING "    UZF RECHARGE" ON UNIT  70 AT TIME STEP  2, STRESS PERIOD  24
 UBUDSV SAVING " SURFACE LEAKAGE" ON UNIT 61 AT TIME STEP  2, STRESS PERIOD   24
 UBDSV3 SAVING " SURFACE LEAKAGE" ON UNIT  70 AT TIME STEP  2, STRESS PERIOD  24


UNSATURATED ZONE PACKAGE VOLUMETRIC BUDGET FOR  TIME STEP    2 STRESS PERIOD   24
  ------------------------------------------------------------------------------



     CUMULATIVE VOLUMES      L**3       RATES FOR THIS TIME STEP      L**3/T
     ------------------                 ------------------------

           IN:                                      IN:
           ---                                      ---
        INFILTRATION =     2211187.7984          INFILTRATION =        5285.0331

          OUT:                                     OUT:
          ----                                     ----
              UZF ET =       0.0000E+00                UZF ET =       0.0000E+00
        UZF RECHARGE =     1611373.7389          UZF RECHARGE =        6238.3936

            IN - OUT =      599814.0594              IN - OUT =        -953.3605

          STORAGE:                                 STORAGE:
          --------                                 --------
      STORAGE CHANGE =      599736.8370        STORAGE CHANGE =        -953.3642

 PERCENT DISCREPANCY IS DIFFERENCE BETWEEN IN-OUT MINUS CHANGE IN STORAGE
 DIVIDED BY THE AVERAGE OF IN AND OUT TIMES 100

 PERCENT DISCREPANCY =           0.00     PERCENT DISCREPANCY =           0.00






 UBDSV2 SAVING "  STREAM LEAKAGE" ON UNIT  70 AT TIME STEP  2, STRESS PERIOD  24



 UBDSV4 SAVING "             MNW" ON UNIT  70 AT TIME STEP  2, STRESS PERIOD  24
 UBDSV4 SAVING "      FARM WELLS" ON UNIT  70 AT TIME STEP  2, STRESS PERIOD  24
 UBDSV3 SAVING "FARM  NET  RECH." ON UNIT  70 AT TIME STEP  2, STRESS PERIOD  24

 HEAD WILL BE SAVED ON UNIT   22 AT END OF TIME STEP   2, STRESS PERIOD   24
1
  VOLUMETRIC BUDGET FOR ENTIRE MODEL AT END OF TIME STEP  2 IN STRESS PERIOD  24
  ------------------------------------------------------------------------------

     CUMULATIVE VOLUMES      L**3       RATES FOR THIS TIME STEP      L**3/T
     ------------------                 ------------------------

           IN:                                      IN:
           ---                                      ---
             STORAGE =    13485891.0000               STORAGE =           0.0000
       CONSTANT HEAD =           0.0000         CONSTANT HEAD =           0.0000
     HEAD DEP BOUNDS =     4705808.0000       HEAD DEP BOUNDS =        7365.3101
        UZF RECHARGE =     1611373.6250          UZF RECHARGE =        6238.3936
               GW ET =           0.0000                 GW ET =           0.0000
     SURFACE LEAKAGE =           0.0000       SURFACE LEAKAGE =           0.0000
      STREAM LEAKAGE =     9749649.0000        STREAM LEAKAGE =       19444.9141
                 MNW =       41054.4180                   MNW =         111.1707
          FARM WELLS =           0.0000            FARM WELLS =           0.0000
    FARM  NET  RECH. =    11068353.0000      FARM  NET  RECH. =       32847.2148

            TOTAL IN =    40662132.0000              TOTAL IN =       66007.0000

          OUT:                                     OUT:
          ----                                     ----
             STORAGE =     7012440.0000               STORAGE =       46972.6445
       CONSTANT HEAD =           0.0000         CONSTANT HEAD =           0.0000
     HEAD DEP BOUNDS =    12589921.0000       HEAD DEP BOUNDS =       16703.9141
        UZF RECHARGE =           0.0000          UZF RECHARGE =           0.0000
               GW ET =           0.0000                 GW ET =           0.0000
     SURFACE LEAKAGE =        2869.4824       SURFACE LEAKAGE =           0.0000
      STREAM LEAKAGE =     2031493.1250        STREAM LEAKAGE =        1588.3268
                 MNW =     6751926.5000                   MNW =         111.1707
          FARM WELLS =     7127010.5000            FARM WELLS =           0.0000
    FARM  NET  RECH. =     5146375.5000      FARM  NET  RECH. =         626.9481

           TOTAL OUT =    40662036.0000             TOTAL OUT =       66003.0078

            IN - OUT =          96.0000              IN - OUT =           3.9922

 PERCENT DISCREPANCY =           0.00     PERCENT DISCREPANCY =           0.01






          TIME SUMMARY AT END OF TIME STEP   2 IN STRESS PERIOD   24
                    SECONDS     MINUTES      HOURS       DAYS        YEARS
                    -----------------------------------------------------------
   TIME STEP LENGTH 1.31414E+06  21902.      365.04      15.210     4.16427E-02
 STRESS PERIOD TIME 2.62829E+06  43805.      730.08      30.420     8.32854E-02
         TOTAL TIME 6.30789E+07 1.05132E+06  17522.      730.08      1.9989    
1

 Run end date and time (yyyy/mm/dd hh:mm:ss): 2009/10/25 17:56:16
 Elapsed run time:  2.625 Seconds

